<?xml version="1.0" encoding="UTF-8"?>

<!-- generated on 23/05/2018 13:26:30 by Netedit Version 0.31.0
<?xml version="1.0" encoding="UTF-8"?>

<configuration xmlns:xsi="http://www.w3.org/2001/XMLSchema-instance" xsi:noNamespaceSchemaLocation="http://sumo.dlr.de/xsd/netconvertConfiguration.xsd">

    <input>
        <sumo-net-file value="D:\Publication\Lane-based_SUE\sumo\lanebasedsumo-LTP\suedstadt2.net.xml"/>
    </input>

    <output>
        <output-file value="D:\Publication\Lane-based_SUE\sumo\lanebasedsumo-LTP\suedstadt2.net.xml"/>
    </output>

    <processing>
        <no-turnarounds value="true"/>
        <offset.disable-normalization value="true"/>
        <lefthand value="false"/>
        <junctions.corner-detail value="0"/>
        <rectangular-lane-cut value="false"/>
        <walkingareas value="false"/>
    </processing>

</configuration>
-->

<net version="0.27" xmlns:xsi="http://www.w3.org/2001/XMLSchema-instance" xsi:noNamespaceSchemaLocation="http://sumo.dlr.de/xsd/net_file.xsd">

    <location netOffset="-0.07,-0.97" convBoundary="37.18,3.18,2039.49,2093.60" origBoundary="0.07,0.97,2045.78,2095.75" projParameter="!"/>

    <edge id=":AegiSued_0" function="internal">
        <lane id=":AegiSued_0_0" index="0" speed="13.89" length="22.04" shape="180.81,1795.86 173.44,1795.05 167.56,1795.47 163.19,1797.11 160.31,1799.98"/>
    </edge>
    <edge id=":AegiSued_1" function="internal">
        <lane id=":AegiSued_1_0" index="0" speed="13.89" length="31.26" shape="180.81,1795.86 150.01,1790.91"/>
        <lane id=":AegiSued_1_1" index="1" speed="13.89" length="31.26" shape="181.38,1792.61 150.46,1787.64"/>
    </edge>
    <edge id=":AegiSued_3" function="internal">
        <lane id=":AegiSued_3_0" index="0" speed="13.89" length="30.34" shape="181.38,1792.61 172.43,1789.87 167.59,1785.48 166.86,1779.45 170.23,1771.79"/>
    </edge>
    <edge id=":AegiSued_4" function="internal">
        <lane id=":AegiSued_4_0" index="0" speed="13.89" length="5.57" shape="181.35,1778.90 180.67,1780.38 180.73,1781.54 181.54,1782.36 183.09,1782.86"/>
    </edge>
    <edge id=":AegiSued_5" function="internal">
        <lane id=":AegiSued_5_0" index="0" speed="13.89" length="29.98" shape="181.35,1778.90 175.41,1786.29 169.78,1790.94 164.67,1794.85 160.31,1799.98"/>
        <lane id=":AegiSued_5_1" index="1" speed="13.89" length="29.98" shape="178.57,1777.12 172.62,1784.53 166.97,1789.20 161.86,1793.12 157.50,1798.25"/>
    </edge>
    <edge id=":AegiSued_7" function="internal">
        <lane id=":AegiSued_7_0" index="0" speed="13.89" length="31.84" shape="175.79,1775.35 169.97,1782.90 163.73,1788.01 157.08,1790.68 150.01,1790.91"/>
    </edge>
    <edge id=":AegiSued_8" function="internal">
        <lane id=":AegiSued_8_0" index="0" speed="13.89" length="28.08" shape="173.01,1773.57 167.82,1780.36 162.33,1784.97 156.54,1787.40 150.46,1787.64"/>
    </edge>
    <edge id=":AegiSued_9" function="internal">
        <lane id=":AegiSued_9_0" index="0" speed="13.89" length="16.85" shape="151.79,1777.83 154.92,1777.55 158.11,1775.85 161.36,1772.75 164.67,1768.23"/>
    </edge>
    <edge id=":AegiSued_10" function="internal">
        <lane id=":AegiSued_10_0" index="0" speed="13.89" length="31.51" shape="151.35,1781.10 182.52,1786.11"/>
        <lane id=":AegiSued_10_1" index="1" speed="13.89" length="31.51" shape="150.90,1784.37 181.95,1789.36"/>
    </edge>
    <edge id=":AegiSued_12" function="internal">
        <lane id=":AegiSued_12_0" index="0" speed="13.89" length="19.93" shape="150.90,1784.37 156.54,1785.95 159.51,1788.79 159.83,1792.89 157.50,1798.25"/>
    </edge>
    <edge id=":AegiSued_13" function="internal">
        <lane id=":AegiSued_13_0" index="0" speed="13.89" length="5.60" shape="151.87,1794.81 152.52,1793.31 152.43,1792.15 151.60,1791.35 150.01,1790.91"/>
    </edge>
    <edge id=":AegiSued_14" function="internal">
        <lane id=":AegiSued_14_0" index="0" speed="13.89" length="29.26" shape="151.87,1794.81 167.45,1770.01"/>
        <lane id=":AegiSued_14_1" index="1" speed="13.89" length="29.26" shape="154.68,1796.53 170.23,1771.79"/>
    </edge>
    <edge id=":AegiSued_16" function="internal">
        <lane id=":AegiSued_16_0" index="0" speed="13.89" length="29.91" shape="154.68,1796.53 158.86,1792.04 164.80,1789.34 172.50,1788.45 181.95,1789.36"/>
    </edge>
    <edge id=":AltenbekenerMitte_0" function="internal">
        <lane id=":AltenbekenerMitte_0_0" index="0" speed="13.89" length="8.67" shape="1191.60,359.66 1191.20,357.01 1190.37,354.97 1189.10,353.55 1187.41,352.74"/>
    </edge>
    <edge id=":AltenbekenerMitte_1" function="internal">
        <lane id=":AltenbekenerMitte_1_0" index="0" speed="11.11" length="19.45" shape="1191.60,359.66 1191.67,353.25 1192.37,348.22 1193.09,344.07 1193.18,340.32"/>
    </edge>
    <edge id=":AltenbekenerMitte_2" function="internal">
        <lane id=":AltenbekenerMitte_2_0" index="0" speed="13.89" length="15.59" shape="1194.90,359.45 1195.14,354.44 1196.62,351.22 1199.33,349.78 1203.27,350.11"/>
    </edge>
    <edge id=":AltenbekenerMitte_3" function="internal">
        <lane id=":AltenbekenerMitte_3_0" index="0" speed="11.11" length="5.45" shape="1201.56,356.49 1199.99,356.29 1198.91,356.69 1198.31,357.67 1198.19,359.24"/>
    </edge>
    <edge id=":AltenbekenerMitte_4" function="internal">
        <lane id=":AltenbekenerMitte_4_0" index="0" speed="13.89" length="14.65" shape="1201.56,356.49 1187.41,352.74"/>
        <lane id=":AltenbekenerMitte_4_1" index="1" speed="13.89" length="14.65" shape="1202.41,353.30 1188.24,349.55"/>
    </edge>
    <edge id=":AltenbekenerMitte_6" function="internal">
        <lane id=":AltenbekenerMitte_6_0" index="0" speed="11.11" length="16.98" shape="1202.41,353.30 1198.84,351.68 1196.11,348.98 1194.22,345.19 1193.18,340.32"/>
    </edge>
    <edge id=":AltenbekenerMitte_7" function="internal">
        <lane id=":AltenbekenerMitte_7_0" index="0" speed="13.89" length="9.09" shape="1199.73,339.56 1200.29,342.41 1201.20,344.59 1202.48,346.10 1204.13,346.93"/>
    </edge>
    <edge id=":AltenbekenerMitte_8" function="internal">
        <lane id=":AltenbekenerMitte_8_0" index="0" speed="11.11" length="19.38" shape="1196.46,339.94 1198.19,359.24"/>
    </edge>
    <edge id=":AltenbekenerMitte_9" function="internal">
        <lane id=":AltenbekenerMitte_9_0" index="0" speed="13.89" length="15.99" shape="1196.46,339.94 1196.47,345.08 1195.10,348.40 1192.36,349.89 1188.24,349.55"/>
    </edge>
    <edge id=":AltenbekenerMitte_10" function="internal">
        <lane id=":AltenbekenerMitte_10_0" index="0" speed="11.11" length="5.52" shape="1189.90,343.16 1191.50,343.35 1192.58,342.93 1193.14,341.92 1193.18,340.32"/>
    </edge>
    <edge id=":AltenbekenerMitte_11" function="internal">
        <lane id=":AltenbekenerMitte_11_0" index="0" speed="13.89" length="14.70" shape="1189.90,343.16 1204.13,346.93"/>
        <lane id=":AltenbekenerMitte_11_1" index="1" speed="13.89" length="14.70" shape="1189.07,346.35 1203.27,350.11"/>
    </edge>
    <edge id=":AltenbekenerMitte_13" function="internal">
        <lane id=":AltenbekenerMitte_13_0" index="0" speed="11.11" length="16.98" shape="1189.07,346.35 1192.81,347.98 1195.57,350.68 1197.37,354.43 1198.19,359.24"/>
    </edge>
    <edge id=":AltenbekenerOst_0" function="internal">
        <lane id=":AltenbekenerOst_0_0" index="0" speed="13.89" length="6.63" shape="1564.79,455.68 1563.43,455.36 1562.15,455.79 1560.94,456.95 1559.81,458.85"/>
    </edge>
    <edge id=":AltenbekenerOst_1" function="internal">
        <lane id=":AltenbekenerOst_1_0" index="0" speed="13.89" length="20.50" shape="1566.24,452.72 1560.80,450.17 1556.85,448.66 1552.78,447.48 1546.95,445.95"/>
    </edge>
    <edge id=":AltenbekenerOst_2" function="internal">
        <lane id=":AltenbekenerOst_2_0" index="0" speed="13.89" length="8.05" shape="1564.49,441.11 1564.30,442.50 1565.02,443.92 1566.64,445.35 1569.15,446.79"/>
    </edge>
    <edge id=":AltenbekenerOst_3" function="internal">
        <lane id=":AltenbekenerOst_3_0" index="0" speed="13.89" length="18.01" shape="1564.49,441.11 1556.83,457.42"/>
    </edge>
    <edge id=":AltenbekenerOst_4" function="internal">
        <lane id=":AltenbekenerOst_4_0" index="0" speed="13.89" length="19.91" shape="1564.49,441.11 1561.94,444.60 1558.17,446.58 1553.17,447.03 1546.95,445.95"/>
    </edge>
    <edge id=":AltenbekenerOst_5" function="internal">
        <lane id=":AltenbekenerOst_5_0" index="0" speed="13.89" length="13.39" shape="1548.66,439.58 1553.77,440.75 1557.61,441.16 1560.18,440.83 1561.48,439.74"/>
    </edge>
    <edge id=":AltenbekenerOst_6" function="internal">
        <lane id=":AltenbekenerOst_6_0" index="0" speed="13.89" length="21.14" shape="1547.81,442.76 1553.73,444.33 1558.01,445.58 1562.16,447.17 1567.69,449.75"/>
    </edge>
    <edge id=":AltenbekenerOst_7" function="internal">
        <lane id=":AltenbekenerOst_7_0" index="0" speed="13.89" length="8.43" shape="1547.81,442.76 1553.71,445.12 1555.23,446.52"/>
    </edge>
    <edge id=":AltenbekenerOst_11" function="internal">
        <lane id=":AltenbekenerOst_11_0" index="0" speed="13.89" length="12.06" shape="1555.23,446.52 1557.19,448.34 1558.23,452.44 1556.83,457.42"/>
    </edge>
    <edge id=":AltenbekenerOst_8" function="internal">
        <lane id=":AltenbekenerOst_8_0" index="0" speed="13.89" length="5.24" shape="1547.92,453.12 1548.36,451.71 1548.21,450.58 1547.45,449.72 1546.09,449.14"/>
    </edge>
    <edge id=":AltenbekenerOst_9" function="internal">
        <lane id=":AltenbekenerOst_9_0" index="0" speed="13.89" length="11.32" shape="1550.89,454.55 1551.85,451.51 1551.51,449.06 1549.88,447.21 1546.95,445.95"/>
    </edge>
    <edge id=":AltenbekenerOst_10" function="internal">
        <lane id=":AltenbekenerOst_10_0" index="0" speed="13.89" length="17.94" shape="1553.86,455.98 1561.48,439.74"/>
    </edge>
    <edge id=":AltenbekenerWest_0" function="internal">
        <lane id=":AltenbekenerWest_0_0" index="0" speed="13.89" length="9.90" shape="972.64,296.71 969.04,295.96 966.28,295.80 964.36,296.24 963.29,297.28"/>
    </edge>
    <edge id=":AltenbekenerWest_1" function="internal">
        <lane id=":AltenbekenerWest_1_0" index="0" speed="13.89" length="24.68" shape="973.48,293.52 949.51,287.61"/>
    </edge>
    <edge id=":AltenbekenerWest_2" function="internal">
        <lane id=":AltenbekenerWest_2_0" index="0" speed="13.89" length="19.99" shape="973.48,293.52 967.70,291.28 964.20,288.17 963.00,284.19 964.08,279.35"/>
    </edge>
    <edge id=":AltenbekenerWest_3" function="internal">
        <lane id=":AltenbekenerWest_3_0" index="0" speed="13.89" length="5.18" shape="973.20,283.20 972.84,284.60 973.04,285.73 973.81,286.57 975.14,287.13"/>
    </edge>
    <edge id=":AltenbekenerWest_4" function="internal">
        <lane id=":AltenbekenerWest_4_0" index="0" speed="13.89" length="16.75" shape="970.16,281.92 963.29,297.28"/>
        <lane id=":AltenbekenerWest_4_1" index="1" speed="13.89" length="16.75" shape="967.12,280.63 960.32,295.85"/>
    </edge>
    <edge id=":AltenbekenerWest_6" function="internal">
        <lane id=":AltenbekenerWest_6_0" index="0" speed="13.89" length="11.49" shape="951.00,281.18 954.61,281.68 957.49,281.33 959.63,280.12 961.04,278.07"/>
    </edge>
    <edge id=":AltenbekenerWest_7" function="internal">
        <lane id=":AltenbekenerWest_7_0" index="0" speed="13.89" length="24.86" shape="951.00,281.18 975.14,287.13"/>
    </edge>
    <edge id=":AltenbekenerWest_8" function="internal">
        <lane id=":AltenbekenerWest_8_0" index="0" speed="13.89" length="24.16" shape="951.00,281.18 958.53,283.76 963.09,287.30 964.68,291.81 963.29,297.28"/>
    </edge>
    <edge id=":AltenbekenerWest_9" function="internal">
        <lane id=":AltenbekenerWest_9_0" index="0" speed="13.89" length="17.99" shape="950.26,284.40 956.14,286.33 959.78,288.89 961.17,292.06 960.32,295.85"/>
    </edge>
    <edge id=":AltenbekenerWest_10" function="internal">
        <lane id=":AltenbekenerWest_10_0" index="0" speed="13.89" length="5.29" shape="951.40,291.56 951.85,290.13 951.69,288.99 950.91,288.16 949.51,287.61"/>
    </edge>
    <edge id=":AltenbekenerWest_11" function="internal">
        <lane id=":AltenbekenerWest_11_0" index="0" speed="13.89" length="16.69" shape="951.40,291.56 953.97,287.37 956.36,284.88 958.68,282.35 961.04,278.07"/>
    </edge>
    <edge id=":AltenbekenerWest_12" function="internal">
        <lane id=":AltenbekenerWest_12_0" index="0" speed="13.89" length="23.52" shape="954.37,292.99 957.48,288.87 961.98,286.52 967.86,285.94 975.14,287.13"/>
    </edge>
    <edge id=":AltenbekenerWest_13" function="internal">
        <lane id=":AltenbekenerWest_13_0" index="0" speed="13.89" length="18.95" shape="957.35,294.42 959.77,291.33 963.41,289.61 968.26,289.28 974.31,290.32"/>
    </edge>
    <edge id=":Geibel_0" function="internal">
        <lane id=":Geibel_0_0" index="0" speed="13.89" length="19.75" shape="761.42,723.76 755.78,720.51 751.72,717.32 748.48,714.51 745.31,712.43"/>
    </edge>
    <edge id=":Geibel_1" function="internal">
        <lane id=":Geibel_1_0" index="0" speed="13.89" length="8.82" shape="762.83,720.78 759.25,718.41 757.29,715.47 757.20,714.48"/>
    </edge>
    <edge id=":Geibel_11" function="internal">
        <lane id=":Geibel_11_0" index="0" speed="13.89" length="6.81" shape="757.20,714.48 756.96,711.96 758.25,707.88"/>
    </edge>
    <edge id=":Geibel_2" function="internal">
        <lane id=":Geibel_2_0" index="0" speed="11.11" length="7.79" shape="764.19,710.75 763.16,713.33 762.83,715.37 763.19,716.86 764.25,717.80"/>
    </edge>
    <edge id=":Geibel_3" function="internal">
        <lane id=":Geibel_3_0" index="0" speed="13.89" length="16.00" shape="764.19,710.75 757.16,725.14"/>
        <lane id=":Geibel_3_1" index="1" speed="13.89" length="16.00" shape="761.22,709.32 754.20,723.67"/>
    </edge>
    <edge id=":Geibel_5" function="internal">
        <lane id=":Geibel_5_0" index="0" speed="13.89" length="5.78" shape="761.22,709.32 758.65,712.78 757.33,713.41"/>
    </edge>
    <edge id=":Geibel_12" function="internal">
        <lane id=":Geibel_12_0" index="0" speed="13.89" length="12.58" shape="757.33,713.41 755.14,714.45 750.70,714.33 745.31,712.43"/>
    </edge>
    <edge id=":Geibel_6" function="internal">
        <lane id=":Geibel_6_0" index="0" speed="13.89" length="5.00" shape="748.16,706.47 749.47,706.88 750.59,706.78 751.54,706.16 752.30,705.02"/>
    </edge>
    <edge id=":Geibel_7" function="internal">
        <lane id=":Geibel_7_0" index="0" speed="11.11" length="19.73" shape="748.16,706.47 753.78,709.73 757.84,712.92 761.08,715.72 764.25,717.80"/>
    </edge>
    <edge id=":Geibel_8" function="internal">
        <lane id=":Geibel_8_0" index="0" speed="13.89" length="18.25" shape="746.74,709.45 751.60,712.44 754.47,715.81 755.34,719.56 754.20,723.67"/>
    </edge>
    <edge id=":Geibel_9" function="internal">
        <lane id=":Geibel_9_0" index="0" speed="13.89" length="10.10" shape="748.29,720.74 749.14,718.13 748.93,715.88 747.65,713.98 745.31,712.43"/>
    </edge>
    <edge id=":Geibel_10" function="internal">
        <lane id=":Geibel_10_0" index="0" speed="13.89" length="15.94" shape="751.25,722.21 758.25,707.88"/>
    </edge>
    <edge id=":GeibelMitte_0" function="internal">
        <lane id=":GeibelMitte_0_0" index="0" speed="8.33" length="16.16" shape="1080.39,871.57 1075.92,869.90 1071.95,869.56 1068.47,870.56 1065.49,872.88"/>
    </edge>
    <edge id=":GeibelMitte_1" function="internal">
        <lane id=":GeibelMitte_1_0" index="0" speed="11.11" length="18.65" shape="1080.39,871.57 1063.63,863.40"/>
    </edge>
    <edge id=":GeibelMitte_2" function="internal">
        <lane id=":GeibelMitte_2_0" index="0" speed="11.11" length="20.22" shape="1080.39,871.57 1075.46,868.22 1073.54,864.55 1074.63,860.55 1078.73,856.22"/>
    </edge>
    <edge id=":GeibelMitte_3" function="internal">
        <lane id=":GeibelMitte_3_0" index="0" speed="13.89" length="5.64" shape="1082.86,861.37 1081.71,862.58 1081.41,863.70 1081.94,864.72 1083.32,865.66"/>
    </edge>
    <edge id=":GeibelMitte_4" function="internal">
        <lane id=":GeibelMitte_4_0" index="0" speed="11.11" length="20.82" shape="1080.79,858.80 1075.58,863.12 1071.48,866.80 1068.21,870.00 1065.49,872.88"/>
    </edge>
    <edge id=":GeibelMitte_5" function="internal">
        <lane id=":GeibelMitte_5_0" index="0" speed="13.89" length="18.71" shape="1080.79,858.80 1075.97,862.09 1071.50,863.95 1067.39,864.39 1063.63,863.40"/>
    </edge>
    <edge id=":GeibelMitte_6" function="internal">
        <lane id=":GeibelMitte_6_0" index="0" speed="11.11" length="15.03" shape="1065.04,860.42 1067.89,861.10 1071.12,860.63 1074.73,859.00 1078.73,856.22"/>
    </edge>
    <edge id=":GeibelMitte_7" function="internal">
        <lane id=":GeibelMitte_7_0" index="0" speed="11.11" length="18.71" shape="1065.04,860.42 1081.86,868.62"/>
    </edge>
    <edge id=":GeibelMitte_8" function="internal">
        <lane id=":GeibelMitte_8_0" index="0" speed="8.33" length="15.33" shape="1065.04,860.42 1068.16,862.67 1069.28,865.49 1068.39,868.90 1065.49,872.88"/>
    </edge>
    <edge id=":GeibelMitte_9" function="internal">
        <lane id=":GeibelMitte_9_0" index="0" speed="11.11" length="5.40" shape="1063.05,870.66 1063.93,869.38 1064.08,868.24 1063.51,867.24 1062.21,866.39"/>
    </edge>
    <edge id=":GeibelMitte_10" function="internal">
        <lane id=":GeibelMitte_10_0" index="0" speed="11.11" length="21.33" shape="1063.05,870.66 1066.38,867.29 1070.69,863.23 1075.11,859.28 1078.73,856.22"/>
    </edge>
    <edge id=":GeibelMitte_11" function="internal">
        <lane id=":GeibelMitte_11_0" index="0" speed="11.11" length="20.45" shape="1063.05,870.66 1066.90,867.60 1071.32,866.24 1076.31,866.58 1081.86,868.62"/>
    </edge>
    <edge id=":JordanNord_0" function="internal">
        <lane id=":JordanNord_0_0" index="0" speed="13.89" length="28.31" shape="1327.47,969.32 1321.18,973.13 1315.04,976.66 1309.61,980.82 1305.45,986.48"/>
    </edge>
    <edge id=":JordanNord_1" function="internal">
        <lane id=":JordanNord_1_0" index="0" speed="11.11" length="36.21" shape="1325.60,966.59 1315.14,972.96 1306.08,976.71 1298.43,977.87 1292.17,976.42"/>
    </edge>
    <edge id=":JordanNord_2" function="internal">
        <lane id=":JordanNord_2_0" index="0" speed="13.89" length="8.43" shape="1318.94,958.64 1317.90,961.33 1318.04,962.65 1319.36,962.59 1321.87,961.15"/>
    </edge>
    <edge id=":JordanNord_3" function="internal">
        <lane id=":JordanNord_3_0" index="0" speed="13.89" length="30.92" shape="1318.94,958.64 1305.45,986.48"/>
        <lane id=":JordanNord_3_1" index="1" speed="13.89" length="30.92" shape="1315.96,957.20 1302.49,985.01"/>
    </edge>
    <edge id=":JordanNord_5" function="internal">
        <lane id=":JordanNord_5_0" index="0" speed="13.89" length="21.77" shape="1295.10,970.51 1296.90,969.93 1299.48,966.80 1302.87,961.13 1307.04,952.91"/>
    </edge>
    <edge id=":JordanNord_6" function="internal">
        <lane id=":JordanNord_6_0" index="0" speed="13.89" length="29.29" shape="1295.10,970.51 1299.64,971.34 1305.61,970.06 1313.02,966.66 1321.87,961.15"/>
    </edge>
    <edge id=":JordanNord_7" function="internal">
        <lane id=":JordanNord_7_0" index="0" speed="13.89" length="16.08" shape="1293.64,973.46 1298.58,976.36 1301.71,979.25 1303.01,982.13 1302.49,985.01"/>
    </edge>
    <edge id=":JordanNord_8" function="internal">
        <lane id=":JordanNord_8_0" index="0" speed="11.11" length="7.90" shape="1296.59,982.07 1296.83,980.67 1296.17,979.27 1294.62,977.85 1292.17,976.42"/>
    </edge>
    <edge id=":JordanNord_9" function="internal">
        <lane id=":JordanNord_9_0" index="0" speed="13.89" length="30.81" shape="1296.59,982.07 1310.02,954.34"/>
    </edge>
    <edge id=":JordanNord_10" function="internal">
        <lane id=":JordanNord_10_0" index="0" speed="13.89" length="31.52" shape="1299.54,983.54 1304.04,977.49 1310.22,972.47 1317.10,968.08 1323.74,963.87"/>
    </edge>
    <edge id=":JordanSued_0" function="internal">
        <lane id=":JordanSued_0_0" index="0" speed="13.89" length="12.55" shape="1866.66,607.72 1863.30,606.33 1860.19,605.82 1857.34,606.19 1854.74,607.44"/>
    </edge>
    <edge id=":JordanSued_1" function="internal">
        <lane id=":JordanSued_1_0" index="0" speed="13.89" length="22.06" shape="1868.20,604.80 1862.56,601.27 1858.96,598.16 1855.50,595.18 1850.28,592.05"/>
    </edge>
    <edge id=":JordanSued_2" function="internal">
        <lane id=":JordanSued_2_0" index="0" speed="13.89" length="6.89" shape="1869.73,601.87 1865.77,599.14 1864.64,597.40"/>
    </edge>
    <edge id=":JordanSued_11" function="internal">
        <lane id=":JordanSued_11_0" index="0" speed="13.89" length="8.66" shape="1864.64,597.40 1863.86,596.19 1863.99,593.01 1866.18,589.61"/>
    </edge>
    <edge id=":JordanSued_3" function="internal">
        <lane id=":JordanSued_3_0" index="0" speed="13.89" length="5.95" shape="1871.05,594.07 1869.96,595.58 1869.63,596.90 1870.07,598.02 1871.27,598.95"/>
    </edge>
    <edge id=":JordanSued_4" function="internal">
        <lane id=":JordanSued_4_0" index="0" speed="13.89" length="20.80" shape="1871.05,594.07 1866.81,598.48 1863.46,601.40 1859.82,604.00 1854.74,607.44"/>
        <lane id=":JordanSued_4_1" index="1" speed="13.89" length="20.80" shape="1868.61,591.84 1864.47,596.17 1861.31,598.93 1857.86,601.36 1852.87,604.72"/>
    </edge>
    <edge id=":JordanSued_6" function="internal">
        <lane id=":JordanSued_6_0" index="0" speed="13.89" length="6.10" shape="1868.61,591.84 1865.29,594.24 1863.32,594.63"/>
    </edge>
    <edge id=":JordanSued_12" function="internal">
        <lane id=":JordanSued_12_0" index="0" speed="13.89" length="13.57" shape="1863.32,594.63 1861.13,595.07 1856.12,594.34 1850.28,592.05"/>
    </edge>
    <edge id=":JordanSued_7" function="internal">
        <lane id=":JordanSued_7_0" index="0" speed="13.89" length="13.83" shape="1853.19,586.13 1858.19,588.40 1862.02,589.74 1864.68,590.14 1866.18,589.61"/>
    </edge>
    <edge id=":JordanSued_8" function="internal">
        <lane id=":JordanSued_8_0" index="0" speed="13.89" length="21.88" shape="1851.74,589.09 1871.27,598.95"/>
    </edge>
    <edge id=":JordanSued_9" function="internal">
        <lane id=":JordanSued_9_0" index="0" speed="13.89" length="5.80" shape="1849.14,599.28 1850.43,598.12 1850.81,597.02 1850.27,595.98 1848.83,595.02"/>
    </edge>
    <edge id=":JordanSued_10" function="internal">
        <lane id=":JordanSued_10_0" index="0" speed="13.89" length="19.63" shape="1851.01,602.00 1856.31,598.25 1860.35,595.11 1863.52,592.33 1866.18,589.61"/>
    </edge>
    <edge id=":KrausenOst_0" function="internal">
        <lane id=":KrausenOst_0_0" index="0" speed="13.89" length="8.23" shape="1159.91,1286.53 1157.11,1285.59 1154.92,1285.33 1153.35,1285.73 1152.39,1286.82"/>
    </edge>
    <edge id=":KrausenOst_1" function="internal">
        <lane id=":KrausenOst_1_0" index="0" speed="11.11" length="16.38" shape="1159.91,1286.53 1144.93,1279.90"/>
    </edge>
    <edge id=":KrausenOst_2" function="internal">
        <lane id=":KrausenOst_2_0" index="0" speed="13.89" length="13.59" shape="1159.91,1286.53 1156.03,1284.46 1153.70,1282.09 1152.93,1279.41 1153.71,1276.43"/>
    </edge>
    <edge id=":KrausenOst_3" function="internal">
        <lane id=":KrausenOst_3_0" index="0" speed="13.89" length="5.09" shape="1159.62,1279.37 1159.18,1280.71 1159.29,1281.84 1159.95,1282.76 1161.17,1283.48"/>
    </edge>
    <edge id=":KrausenOst_4" function="internal">
        <lane id=":KrausenOst_4_0" index="0" speed="13.89" length="9.89" shape="1156.67,1277.90 1152.39,1286.82"/>
    </edge>
    <edge id=":KrausenOst_5" function="internal">
        <lane id=":KrausenOst_5_0" index="0" speed="11.11" length="5.47" shape="1146.35,1276.92 1147.67,1277.29 1148.84,1277.09 1149.87,1276.31 1150.76,1274.96"/>
    </edge>
    <edge id=":KrausenOst_6" function="internal">
        <lane id=":KrausenOst_6_0" index="0" speed="11.11" length="16.20" shape="1146.35,1276.92 1161.17,1283.48"/>
    </edge>
    <edge id=":KrausenOst_7" function="internal">
        <lane id=":KrausenOst_7_0" index="0" speed="11.11" length="13.02" shape="1146.35,1276.92 1149.99,1279.09 1152.21,1281.47 1153.01,1284.04 1152.39,1286.82"/>
    </edge>
    <edge id=":KrausenOst_8" function="internal">
        <lane id=":KrausenOst_8_0" index="0" speed="11.11" length="7.83" shape="1149.39,1285.44 1149.60,1284.04 1148.92,1282.65 1147.37,1281.27 1144.93,1279.90"/>
    </edge>
    <edge id=":KrausenOst_9" function="internal">
        <lane id=":KrausenOst_9_0" index="0" speed="13.89" length="9.99" shape="1149.39,1285.44 1153.71,1276.43"/>
    </edge>
    <edge id=":KrausenOst_10" function="internal">
        <lane id=":KrausenOst_10_0" index="0" speed="13.89" length="4.55" shape="1149.39,1285.44 1151.11,1283.17 1152.69,1282.50"/>
    </edge>
    <edge id=":KrausenOst_11" function="internal">
        <lane id=":KrausenOst_11_0" index="0" speed="13.89" length="8.76" shape="1152.69,1282.50 1153.65,1282.09 1157.00,1282.19 1161.17,1283.48"/>
    </edge>
    <edge id=":KrausenWest_0" function="internal">
        <lane id=":KrausenWest_0_0" index="0" speed="11.11" length="6.34" shape="612.48,1023.90 611.10,1023.55 609.83,1023.89 608.64,1024.92 607.55,1026.64"/>
    </edge>
    <edge id=":KrausenWest_1" function="internal">
        <lane id=":KrausenWest_1_0" index="0" speed="8.33" length="16.58" shape="612.48,1023.90 608.83,1022.26 604.84,1020.69 600.78,1019.29 596.95,1018.15"/>
    </edge>
    <edge id=":KrausenWest_2" function="internal">
        <lane id=":KrausenWest_2_0" index="0" speed="11.11" length="5.01" shape="612.51,1016.78 612.08,1018.09 612.17,1019.21 612.78,1020.16 613.92,1020.93"/>
    </edge>
    <edge id=":KrausenWest_3" function="internal">
        <lane id=":KrausenWest_3_0" index="0" speed="13.89" length="11.02" shape="612.51,1016.78 607.55,1026.64"/>
        <lane id=":KrausenWest_3_1" index="1" speed="13.89" length="11.02" shape="609.55,1015.32 604.60,1025.14"/>
    </edge>
    <edge id=":KrausenWest_5" function="internal">
        <lane id=":KrausenWest_5_0" index="0" speed="11.11" length="4.62" shape="609.55,1015.32 607.74,1017.56 606.16,1018.27"/>
    </edge>
    <edge id=":KrausenWest_10" function="internal">
        <lane id=":KrausenWest_10_0" index="0" speed="11.11" length="9.40" shape="606.16,1018.27 605.03,1018.78 601.44,1018.98 596.95,1018.15"/>
    </edge>
    <edge id=":KrausenWest_6" function="internal">
        <lane id=":KrausenWest_6_0" index="0" speed="13.89" length="6.99" shape="597.81,1014.96 599.68,1015.21 601.27,1014.86 602.59,1013.92 603.64,1012.38"/>
    </edge>
    <edge id=":KrausenWest_7" function="internal">
        <lane id=":KrausenWest_7_0" index="0" speed="11.11" length="17.20" shape="597.81,1014.96 601.73,1016.14 605.99,1017.62 610.19,1019.26 613.92,1020.93"/>
    </edge>
    <edge id=":KrausenWest_8" function="internal">
        <lane id=":KrausenWest_8_0" index="0" speed="11.11" length="5.27" shape="598.72,1022.15 599.20,1020.74 599.07,1019.60 598.31,1018.74 596.95,1018.15"/>
    </edge>
    <edge id=":KrausenWest_9" function="internal">
        <lane id=":KrausenWest_9_0" index="0" speed="13.89" length="10.97" shape="601.66,1023.65 606.59,1013.85"/>
    </edge>
    <edge id=":Luther_0" function="internal">
        <lane id=":Luther_0_0" index="0" speed="11.11" length="6.22" shape="1007.82,1623.26 1006.49,1623.20 1005.29,1623.75 1004.21,1624.89 1003.25,1626.64"/>
    </edge>
    <edge id=":Luther_1" function="internal">
        <lane id=":Luther_1_0" index="0" speed="11.11" length="16.00" shape="1007.82,1623.26 1004.04,1622.27 1000.09,1621.17 996.19,1619.95 992.52,1618.62"/>
    </edge>
    <edge id=":Luther_2" function="internal">
        <lane id=":Luther_2_0" index="0" speed="11.11" length="15.84" shape="1007.82,1623.26 1002.54,1621.42 999.20,1619.15 997.82,1616.45 998.38,1613.32"/>
    </edge>
    <edge id=":Luther_3" function="internal">
        <lane id=":Luther_3_0" index="0" speed="13.89" length="10.00" shape="1001.38,1614.70 1001.30,1616.20 1002.48,1617.59 1004.93,1618.88 1008.65,1620.07"/>
    </edge>
    <edge id=":Luther_4" function="internal">
        <lane id=":Luther_4_0" index="0" speed="13.89" length="10.83" shape="1001.38,1614.70 1000.62,1617.59 1000.82,1619.88 1001.01,1622.24 1000.23,1625.32"/>
    </edge>
    <edge id=":Luther_5" function="internal">
        <lane id=":Luther_5_0" index="0" speed="13.89" length="5.79" shape="993.76,1615.56 995.18,1615.88 996.43,1615.61 997.50,1614.76 998.38,1613.32"/>
    </edge>
    <edge id=":Luther_6" function="internal">
        <lane id=":Luther_6_0" index="0" speed="13.89" length="15.57" shape="993.76,1615.56 997.36,1616.87 1001.13,1618.04 1004.93,1619.10 1008.65,1620.07"/>
    </edge>
    <edge id=":Luther_7" function="internal">
        <lane id=":Luther_7_0" index="0" speed="13.89" length="10.47" shape="993.76,1615.56 996.25,1617.00 997.65,1618.89 997.97,1621.22 997.20,1624.00"/>
    </edge>
    <edge id=":Luther_8" function="internal">
        <lane id=":Luther_8_0" index="0" speed="13.89" length="5.03" shape="994.18,1622.68 994.55,1621.34 994.39,1620.22 993.72,1619.31 992.52,1618.62"/>
    </edge>
    <edge id=":Luther_9" function="internal">