<?xml version="1.0" encoding="UTF-8"?>

<!-- generated on 25.08.2017 21:18:13 by Netedit Version dev-SVN-r18894
<?xml version="1.0" encoding="UTF-8"?>

<configuration xmlns:xsi="http://www.w3.org/2001/XMLSchema-instance" xsi:noNamespaceSchemaLocation="http://sumo.dlr.de/xsd/netedit.exeConfiguration.xsd">

    <input>
        <sumo-net-file value="C:\Users\tang.IVS\Dropbox\PhD\Implementation\Test%20network\SUMO\suedstadtSimple2.net.xml"/>
    </input>

    <output>
        <output-file value="C:\Users\tang.IVS\Dropbox\PhD\Implementation\Test%20network\SUMO\suedstadtSimple2.net.xml"/>
    </output>

    <processing>
        <no-turnarounds value="true"/>
        <offset.disable-normalization value="true"/>
    </processing>

</configuration>
-->

<net version="0.13" xmlns:xsi="http://www.w3.org/2001/XMLSchema-instance" xsi:noNamespaceSchemaLocation="http://sumo.dlr.de/xsd/net_file.xsd">

    <location netOffset="-0.07,-0.97" convBoundary="37.18,3.18,2039.49,2093.60" origBoundary="0.07,0.97,2045.78,2095.75" projParameter="!"/>

    <edge id=":AegiSued_0" function="internal">
        <lane id=":AegiSued_0_0" index="0" speed="13.89" length="22.04" shape="180.81,1795.86 173.44,1795.05 167.56,1795.47 163.19,1797.11 160.31,1799.98"/>
    </edge>
    <edge id=":AegiSued_1" function="internal">
        <lane id=":AegiSued_1_0" index="0" speed="13.89" length="31.26" shape="180.81,1795.86 173.24,1794.55 165.43,1793.25 157.62,1792.01 150.01,1790.91"/>
        <lane id=":AegiSued_1_1" index="1" speed="13.89" length="31.26" shape="181.38,1792.61 173.79,1791.30 165.94,1789.99 158.08,1788.74 150.46,1787.64"/>
    </edge>
    <edge id=":AegiSued_3" function="internal">
        <lane id=":AegiSued_3_0" index="0" speed="13.89" length="10.39" shape="181.38,1792.61 172.43,1789.87 171.67,1789.18"/>
    </edge>
    <edge id=":AegiSued_17" function="internal">
        <lane id=":AegiSued_17_0" index="0" speed="13.89" length="19.95" shape="171.67,1789.18 167.59,1785.48 166.86,1779.45 170.23,1771.79"/>
    </edge>
    <edge id=":AegiSued_4" function="internal">
        <lane id=":AegiSued_4_0" index="0" speed="13.89" length="9.10" shape="181.35,1778.90 180.67,1780.38 180.73,1781.54 181.54,1782.36 183.09,1782.86"/>
        <lane id=":AegiSued_4_1" index="1" speed="13.89" length="9.10" shape="178.57,1777.12 177.03,1780.48 177.17,1783.10 179.00,1784.98 182.52,1786.11"/>
    </edge>
    <edge id=":AegiSued_6" function="internal">
        <lane id=":AegiSued_6_0" index="0" speed="13.89" length="29.36" shape="175.79,1775.35 170.33,1782.93 165.64,1788.23 161.44,1792.81 157.50,1798.25"/>
    </edge>
    <edge id=":AegiSued_7" function="internal">
        <lane id=":AegiSued_7_0" index="0" speed="13.89" length="11.79" shape="173.01,1773.57 167.82,1780.36 165.34,1782.44"/>
    </edge>
    <edge id=":AegiSued_18" function="internal">
        <lane id=":AegiSued_18_0" index="0" speed="13.89" length="16.29" shape="165.34,1782.44 162.33,1784.97 156.54,1787.40 150.46,1787.64"/>
    </edge>
    <edge id=":AegiSued_8" function="internal">
        <lane id=":AegiSued_8_0" index="0" speed="13.89" length="16.85" shape="151.79,1777.83 154.92,1777.55 158.11,1775.85 161.36,1772.75 164.67,1768.23"/>
    </edge>
    <edge id=":AegiSued_9" function="internal">
        <lane id=":AegiSued_9_0" index="0" speed="13.89" length="31.58" shape="151.79,1777.83 160.88,1779.11 167.48,1780.13 174.06,1781.27 183.09,1782.86"/>
        <lane id=":AegiSued_9_1" index="1" speed="13.89" length="31.58" shape="151.35,1781.10 160.41,1782.37 166.97,1783.39 173.51,1784.52 182.52,1786.11"/>
        <lane id=":AegiSued_9_2" index="2" speed="13.89" length="31.58" shape="150.90,1784.37 159.95,1785.64 166.46,1786.65 172.96,1787.78 181.95,1789.36"/>
    </edge>
    <edge id=":AegiSued_12" function="internal">
        <lane id=":AegiSued_12_0" index="0" speed="13.89" length="7.48" shape="150.90,1784.37 156.54,1785.95 157.71,1787.07"/>
    </edge>
    <edge id=":AegiSued_19" function="internal">
        <lane id=":AegiSued_19_0" index="0" speed="13.89" length="12.45" shape="157.71,1787.07 159.51,1788.79 159.83,1792.89 157.50,1798.25"/>
    </edge>
    <edge id=":AegiSued_13" function="internal">
        <lane id=":AegiSued_13_0" index="0" speed="13.89" length="5.60" shape="151.87,1794.81 152.52,1793.31 152.43,1792.15 151.60,1791.35 150.01,1790.91"/>
    </edge>
    <edge id=":AegiSued_14" function="internal">
        <lane id=":AegiSued_14_0" index="0" speed="13.89" length="29.26" shape="151.87,1794.81 155.39,1789.07 158.65,1783.84 162.42,1777.89 167.45,1770.01"/>
        <lane id=":AegiSued_14_1" index="1" speed="13.89" length="29.26" shape="154.68,1796.53 158.20,1790.80 161.46,1785.58 165.21,1779.65 170.23,1771.79"/>
    </edge>
    <edge id=":AegiSued_16" function="internal">
        <lane id=":AegiSued_16_0" index="0" speed="13.89" length="8.25" shape="154.68,1796.53 158.86,1792.04 160.78,1791.17"/>
    </edge>
    <edge id=":AegiSued_20" function="internal">
        <lane id=":AegiSued_20_0" index="0" speed="13.89" length="21.66" shape="160.78,1791.17 164.80,1789.34 172.50,1788.45 181.95,1789.36"/>
    </edge>
    <edge id=":AltenbekenerMitte_0" function="internal">
        <lane id=":AltenbekenerMitte_0_0" index="0" speed="13.89" length="8.67" shape="1191.60,359.66 1191.20,357.01 1190.37,354.97 1189.10,353.55 1187.41,352.74"/>
    </edge>
    <edge id=":AltenbekenerMitte_1" function="internal">
        <lane id=":AltenbekenerMitte_1_0" index="0" speed="11.11" length="19.21" shape="1194.90,359.45 1194.45,353.11 1194.02,348.15 1193.60,344.05 1193.18,340.32"/>
    </edge>
    <edge id=":AltenbekenerMitte_2" function="internal">
        <lane id=":AltenbekenerMitte_2_0" index="0" speed="13.89" length="7.31" shape="1194.90,359.45 1195.14,354.44 1196.10,352.36"/>
    </edge>
    <edge id=":AltenbekenerMitte_14" function="internal">
        <lane id=":AltenbekenerMitte_14_0" index="0" speed="13.89" length="8.28" shape="1196.10,352.36 1196.62,351.22 1199.33,349.78 1203.27,350.11"/>
    </edge>
    <edge id=":AltenbekenerMitte_3" function="internal">
        <lane id=":AltenbekenerMitte_3_0" index="0" speed="11.11" length="5.45" shape="1201.56,356.49 1199.99,356.29 1198.91,356.69 1198.31,357.67 1198.19,359.24"/>
    </edge>
    <edge id=":AltenbekenerMitte_4" function="internal">
        <lane id=":AltenbekenerMitte_4_0" index="0" speed="13.89" length="14.65" shape="1201.56,356.49 1197.36,355.36 1194.49,354.59 1191.61,353.84 1187.41,352.74"/>
        <lane id=":AltenbekenerMitte_4_1" index="1" speed="13.89" length="14.65" shape="1202.41,353.30 1198.21,352.17 1195.33,351.40 1192.45,350.65 1188.24,349.55"/>
    </edge>
    <edge id=":AltenbekenerMitte_6" function="internal">
        <lane id=":AltenbekenerMitte_6_0" index="0" speed="11.11" length="6.07" shape="1202.41,353.30 1198.84,351.68 1197.32,350.17"/>
    </edge>
    <edge id=":AltenbekenerMitte_15" function="internal">
        <lane id=":AltenbekenerMitte_15_0" index="0" speed="11.11" length="10.91" shape="1197.32,350.17 1196.11,348.98 1194.22,345.19 1193.18,340.32"/>
    </edge>
    <edge id=":AltenbekenerMitte_7" function="internal">
        <lane id=":AltenbekenerMitte_7_0" index="0" speed="13.89" length="9.09" shape="1199.73,339.56 1200.29,342.41 1201.20,344.59 1202.48,346.10 1204.13,346.93"/>
    </edge>
    <edge id=":AltenbekenerMitte_8" function="internal">
        <lane id=":AltenbekenerMitte_8_0" index="0" speed="11.11" length="19.38" shape="1196.46,339.94 1197.15,346.31 1197.62,351.33 1197.94,355.47 1198.19,359.24"/>
    </edge>
    <edge id=":AltenbekenerMitte_9" function="internal">
        <lane id=":AltenbekenerMitte_9_0" index="0" speed="13.89" length="7.56" shape="1196.46,339.94 1196.47,345.08 1195.55,347.32"/>
    </edge>
    <edge id=":AltenbekenerMitte_16" function="internal">
        <lane id=":AltenbekenerMitte_16_0" index="0" speed="13.89" length="8.42" shape="1195.55,347.32 1195.10,348.40 1192.36,349.89 1188.24,349.55"/>
    </edge>
    <edge id=":AltenbekenerMitte_10" function="internal">
        <lane id=":AltenbekenerMitte_10_0" index="0" speed="11.11" length="5.52" shape="1189.90,343.16 1191.50,343.35 1192.58,342.93 1193.14,341.92 1193.18,340.32"/>
    </edge>
    <edge id=":AltenbekenerMitte_11" function="internal">
        <lane id=":AltenbekenerMitte_11_0" index="0" speed="13.89" length="14.70" shape="1189.90,343.16 1194.13,344.26 1197.02,345.02 1199.91,345.79 1204.13,346.93"/>
        <lane id=":AltenbekenerMitte_11_1" index="1" speed="13.89" length="14.70" shape="1189.07,346.35 1193.29,347.45 1196.18,348.21 1199.06,348.98 1203.27,350.11"/>
    </edge>
    <edge id=":AltenbekenerMitte_13" function="internal">
        <lane id=":AltenbekenerMitte_13_0" index="0" speed="11.11" length="6.24" shape="1189.07,346.35 1192.81,347.98 1194.36,349.49"/>
    </edge>
    <edge id=":AltenbekenerMitte_17" function="internal">
        <lane id=":AltenbekenerMitte_17_0" index="0" speed="11.11" length="10.74" shape="1194.36,349.49 1195.57,350.68 1197.37,354.43 1198.19,359.24"/>
    </edge>
    <edge id=":AltenbekenerOst_0" function="internal">
        <lane id=":AltenbekenerOst_0_0" index="0" speed="13.89" length="6.63" shape="1564.79,455.68 1563.43,455.36 1562.15,455.79 1560.94,456.95 1559.81,458.85"/>
    </edge>
    <edge id=":AltenbekenerOst_1" function="internal">
        <lane id=":AltenbekenerOst_1_0" index="0" speed="13.89" length="20.18" shape="1564.79,455.68 1559.46,453.18 1555.69,451.74 1551.80,450.63 1546.09,449.14"/>
        <lane id=":AltenbekenerOst_1_1" index="1" speed="13.89" length="20.18" shape="1566.24,452.72 1560.80,450.17 1556.85,448.66 1552.78,447.48 1546.95,445.95"/>
    </edge>
    <edge id=":AltenbekenerOst_3" function="internal">
        <lane id=":AltenbekenerOst_3_0" index="0" speed="13.89" length="6.27" shape="1566.24,452.72 1562.68,450.30 1561.59,448.67"/>
    </edge>
    <edge id=":AltenbekenerOst_14" function="internal">
        <lane id=":AltenbekenerOst_14_0" index="0" speed="13.89" length="9.38" shape="1561.59,448.67 1560.70,447.34 1560.30,443.82 1561.48,439.74"/>
    </edge>
    <edge id=":AltenbekenerOst_4" function="internal">
        <lane id=":AltenbekenerOst_4_0" index="0" speed="13.89" length="8.05" shape="1564.49,441.11 1564.30,442.50 1565.02,443.92 1566.64,445.35 1569.15,446.79"/>
    </edge>
    <edge id=":AltenbekenerOst_5" function="internal">
        <lane id=":AltenbekenerOst_5_0" index="0" speed="13.89" length="18.01" shape="1564.49,441.11 1562.97,444.44 1561.35,447.93 1559.39,452.08 1556.83,457.42"/>
    </edge>
    <edge id=":AltenbekenerOst_6" function="internal">
        <lane id=":AltenbekenerOst_6_0" index="0" speed="13.89" length="8.26" shape="1564.49,441.11 1561.94,444.60 1558.46,446.43"/>
    </edge>
    <edge id=":AltenbekenerOst_15" function="internal">
        <lane id=":AltenbekenerOst_15_0" index="0" speed="13.89" length="11.65" shape="1558.46,446.43 1558.17,446.58 1553.17,447.03 1546.95,445.95"/>
    </edge>
    <edge id=":AltenbekenerOst_7" function="internal">
        <lane id=":AltenbekenerOst_7_0" index="0" speed="13.89" length="13.39" shape="1548.66,439.58 1553.77,440.75 1557.61,441.16 1560.18,440.83 1561.48,439.74"/>
    </edge>
    <edge id=":AltenbekenerOst_8" function="internal">
        <lane id=":AltenbekenerOst_8_0" index="0" speed="13.89" length="21.46" shape="1548.66,439.58 1554.68,441.18 1559.16,442.51 1563.52,444.17 1569.15,446.79"/>
        <lane id=":AltenbekenerOst_8_1" index="1" speed="13.89" length="21.46" shape="1547.81,442.76 1553.73,444.33 1558.01,445.58 1562.16,447.17 1567.69,449.75"/>
    </edge>
    <edge id=":AltenbekenerOst_10" function="internal">
        <lane id=":AltenbekenerOst_10_0" index="0" speed="13.89" length="8.43" shape="1547.81,442.76 1553.71,445.12 1555.23,446.52"/>
    </edge>
    <edge id=":AltenbekenerOst_16" function="internal">
        <lane id=":AltenbekenerOst_16_0" index="0" speed="13.89" length="12.06" shape="1555.23,446.52 1557.19,448.34 1558.23,452.44 1556.83,457.42"/>
    </edge>
    <edge id=":AltenbekenerOst_11" function="internal">
        <lane id=":AltenbekenerOst_11_0" index="0" speed="13.89" length="5.24" shape="1547.92,453.12 1548.36,451.71 1548.21,450.58 1547.45,449.72 1546.09,449.14"/>
    </edge>
    <edge id=":AltenbekenerOst_12" function="internal">
        <lane id=":AltenbekenerOst_12_0" index="0" speed="13.89" length="18.26" shape="1550.89,454.55 1553.92,449.42 1556.89,445.78 1559.51,442.83 1561.48,439.74"/>
    </edge>
    <edge id=":AltenbekenerOst_13" function="internal">
        <lane id=":AltenbekenerOst_13_0" index="0" speed="13.89" length="7.52" shape="1553.86,455.98 1556.63,451.65 1558.51,450.20"/>
    </edge>
    <edge id=":AltenbekenerOst_17" function="internal">
        <lane id=":AltenbekenerOst_17_0" index="0" speed="13.89" length="9.77" shape="1558.51,450.20 1559.86,449.16 1563.55,448.53 1567.69,449.75"/>
    </edge>
    <edge id=":AltenbekenerWest_0" function="internal">
        <lane id=":AltenbekenerWest_0_0" index="0" speed="13.89" length="9.90" shape="972.64,296.71 969.04,295.96 966.28,295.80 964.36,296.24 963.29,297.28"/>
    </edge>
    <edge id=":AltenbekenerWest_1" function="internal">
        <lane id=":AltenbekenerWest_1_0" index="0" speed="13.89" length="24.68" shape="973.48,293.52 966.33,291.69 959.69,290.04 953.95,288.66 949.51,287.61"/>
    </edge>
    <edge id=":AltenbekenerWest_2" function="internal">
        <lane id=":AltenbekenerWest_2_0" index="0" speed="13.89" length="8.32" shape="973.48,293.52 967.70,291.28 966.11,289.87"/>
    </edge>
    <edge id=":AltenbekenerWest_15" function="internal">
        <lane id=":AltenbekenerWest_15_0" index="0" speed="13.89" length="11.67" shape="966.11,289.87 964.20,288.17 963.00,284.19 964.08,279.35"/>
    </edge>
    <edge id=":AltenbekenerWest_3" function="internal">
        <lane id=":AltenbekenerWest_3_0" index="0" speed="13.89" length="5.18" shape="973.20,283.20 972.84,284.60 973.04,285.73 973.81,286.57 975.14,287.13"/>
    </edge>
    <edge id=":AltenbekenerWest_4" function="internal">
        <lane id=":AltenbekenerWest_4_0" index="0" speed="13.89" length="17.24" shape="973.20,283.20 970.77,287.66 968.39,290.31 965.95,292.93 963.29,297.28"/>
        <lane id=":AltenbekenerWest_4_1" index="1" speed="13.89" length="17.24" shape="970.16,281.92 967.75,286.33 965.39,288.95 962.95,291.54 960.32,295.85"/>
    </edge>
    <edge id=":AltenbekenerWest_6" function="internal">
        <lane id=":AltenbekenerWest_6_0" index="0" speed="13.89" length="9.79" shape="967.12,280.63 964.43,284.85 960.59,287.42 960.42,287.45"/>
    </edge>
    <edge id=":AltenbekenerWest_16" function="internal">
        <lane id=":AltenbekenerWest_16_0" index="0" speed="13.89" length="11.04" shape="960.42,287.45 955.62,288.34 949.51,287.61"/>
    </edge>
    <edge id=":AltenbekenerWest_7" function="internal">
        <lane id=":AltenbekenerWest_7_0" index="0" speed="13.89" length="11.49" shape="951.00,281.18 954.61,281.68 957.49,281.33 959.63,280.12 961.04,278.07"/>
    </edge>
    <edge id=":AltenbekenerWest_8" function="internal">
        <lane id=":AltenbekenerWest_8_0" index="0" speed="13.89" length="24.82" shape="951.00,281.18 957.52,282.71 963.10,284.06 968.66,285.45 975.14,287.13"/>
        <lane id=":AltenbekenerWest_8_1" index="1" speed="13.89" length="24.82" shape="950.26,284.40 956.76,285.92 962.31,287.26 967.84,288.65 974.31,290.32"/>
    </edge>
    <edge id=":AltenbekenerWest_10" function="internal">
        <lane id=":AltenbekenerWest_10_0" index="0" speed="13.89" length="9.40" shape="950.26,284.40 956.14,286.33 958.76,288.17"/>
    </edge>
    <edge id=":AltenbekenerWest_17" function="internal">
        <lane id=":AltenbekenerWest_17_0" index="0" speed="13.89" length="8.60" shape="958.76,288.17 959.78,288.89 961.17,292.06 960.32,295.85"/>
    </edge>
    <edge id=":AltenbekenerWest_11" function="internal">
        <lane id=":AltenbekenerWest_11_0" index="0" speed="13.89" length="5.29" shape="951.40,291.56 951.85,290.13 951.69,288.99 950.91,288.16 949.51,287.61"/>
    </edge>
    <edge id=":AltenbekenerWest_12" function="internal">
        <lane id=":AltenbekenerWest_12_0" index="0" speed="13.89" length="16.76" shape="951.40,291.56 953.97,287.37 956.36,284.88 958.68,282.35 961.04,278.07"/>
        <lane id=":AltenbekenerWest_12_1" index="1" speed="13.89" length="16.76" shape="954.37,292.99 956.97,288.76 959.37,286.23 961.70,283.67 964.08,279.35"/>
    </edge>
    <edge id=":AltenbekenerWest_14" function="internal">
        <lane id=":AltenbekenerWest_14_0" index="0" speed="13.89" length="6.28" shape="957.35,294.42 959.77,291.33 961.90,290.32"/>
    </edge>
    <edge id=":AltenbekenerWest_18" function="internal">
        <lane id=":AltenbekenerWest_18_0" index="0" speed="13.89" length="12.67" shape="961.90,290.32 963.41,289.61 968.26,289.28 974.31,290.32"/>
    </edge>
    <edge id=":Geibel_0" function="internal">
        <lane id=":Geibel_0_0" index="0" speed="13.89" length="5.09" shape="761.42,723.76 760.07,723.33 758.91,723.42 757.94,724.02 757.16,725.14"/>
    </edge>
    <edge id=":Geibel_1" function="internal">
        <lane id=":Geibel_1_0" index="0" speed="13.89" length="19.41" shape="762.83,720.78 757.03,718.02 752.48,715.85 748.72,714.06 745.31,712.43"/>
    </edge>
    <edge id=":Geibel_2" function="internal">
        <lane id=":Geibel_2_0" index="0" speed="13.89" length="8.82" shape="762.83,720.78 759.25,718.41 757.29,715.47 757.20,714.48"/>
    </edge>
    <edge id=":Geibel_14" function="internal">
        <lane id=":Geibel_14_0" index="0" speed="13.89" length="6.81" shape="757.20,714.48 756.96,711.96 758.25,707.88"/>
    </edge>
    <edge id=":Geibel_3" function="internal">
        <lane id=":Geibel_3_0" index="0" speed="11.11" length="7.79" shape="764.19,710.75 763.16,713.33 762.83,715.37 763.19,716.86 764.25,717.80"/>
    </edge>
    <edge id=":Geibel_4" function="internal">
        <lane id=":Geibel_4_0" index="0" speed="13.89" length="16.00" shape="764.19,710.75 762.13,715.03 760.71,717.96 759.27,720.88 757.16,725.14"/>
        <lane id=":Geibel_4_1" index="1" speed="13.89" length="16.00" shape="761.22,709.32 759.16,713.59 757.74,716.51 756.31,719.42 754.20,723.67"/>
    </edge>
    <edge id=":Geibel_6" function="internal">
        <lane id=":Geibel_6_0" index="0" speed="13.89" length="5.73" shape="761.22,709.32 758.65,712.78 757.37,713.39"/>
    </edge>
    <edge id=":Geibel_15" function="internal">
        <lane id=":Geibel_15_0" index="0" speed="13.89" length="12.62" shape="757.37,713.39 755.14,714.45 750.70,714.33 745.31,712.43"/>
    </edge>
    <edge id=":Geibel_7" function="internal">
        <lane id=":Geibel_7_0" index="0" speed="13.89" length="5.00" shape="748.16,706.47 749.47,706.88 750.59,706.78 751.54,706.16 752.30,705.02"/>
    </edge>
    <edge id=":Geibel_8" function="internal">
        <lane id=":Geibel_8_0" index="0" speed="11.11" length="19.73" shape="748.16,706.47 753.78,709.73 757.84,712.92 761.08,715.72 764.25,717.80"/>
    </edge>
    <edge id=":Geibel_9" function="internal">
        <lane id=":Geibel_9_0" index="0" speed="13.89" length="8.41" shape="746.74,709.45 751.60,712.44 753.35,714.50"/>
    </edge>
    <edge id=":Geibel_16" function="internal">
        <lane id=":Geibel_16_0" index="0" speed="13.89" length="9.84" shape="753.35,714.50 754.47,715.81 755.34,719.56 754.20,723.67"/>
    </edge>
    <edge id=":Geibel_10" function="internal">
        <lane id=":Geibel_10_0" index="0" speed="13.89" length="10.10" shape="748.29,720.74 749.14,718.13 748.93,715.88 747.65,713.98 745.31,712.43"/>
    </edge>
    <edge id=":Geibel_11" function="internal">
        <lane id=":Geibel_11_0" index="0" speed="13.89" length="15.92" shape="748.29,720.74 750.39,716.51 751.81,713.61 753.22,710.70 755.27,706.45"/>
        <lane id=":Geibel_11_1" index="1" speed="13.89" length="15.92" shape="751.25,722.21 753.35,717.97 754.78,715.06 756.19,712.15 758.25,707.88"/>
    </edge>
    <edge id=":Geibel_13" function="internal">
        <lane id=":Geibel_13_0" index="0" speed="11.11" length="6.35" shape="751.25,722.21 753.65,718.72 755.43,717.58"/>
    </edge>
    <edge id=":Geibel_17" function="internal">
        <lane id=":Geibel_17_0" index="0" speed="11.11" length="9.25" shape="755.43,717.58 756.62,716.82 760.15,716.52 764.25,717.80"/>
    </edge>
    <edge id=":GeibelMitte_0" function="internal">
        <lane id=":GeibelMitte_0_0" index="0" speed="8.33" length="16.16" shape="1080.39,871.57 1075.92,869.90 1071.95,869.56 1068.47,870.56 1065.49,872.88"/>
    </edge>
    <edge id=":GeibelMitte_1" function="internal">
        <lane id=":GeibelMitte_1_0" index="0" speed="11.11" length="18.65" shape="1080.39,871.57 1077.07,869.92 1073.49,868.16 1069.17,866.05 1063.63,863.40"/>
    </edge>
    <edge id=":GeibelMitte_2" function="internal">
        <lane id=":GeibelMitte_2_0" index="0" speed="11.11" length="7.45" shape="1080.39,871.57 1075.46,868.22 1074.77,866.91"/>
    </edge>
    <edge id=":GeibelMitte_12" function="internal">
        <lane id=":GeibelMitte_12_0" index="0" speed="11.11" length="12.77" shape="1074.77,866.91 1073.54,864.55 1074.63,860.55 1078.73,856.22"/>
    </edge>
    <edge id=":GeibelMitte_3" function="internal">
        <lane id=":GeibelMitte_3_0" index="0" speed="13.89" length="5.64" shape="1082.86,861.37 1081.71,862.58 1081.41,863.70 1081.94,864.72 1083.32,865.66"/>
    </edge>
    <edge id=":GeibelMitte_4" function="internal">
        <lane id=":GeibelMitte_4_0" index="0" speed="11.11" length="20.87" shape="1082.86,861.37 1077.32,865.29 1072.51,868.09 1068.53,870.41 1065.49,872.88"/>
    </edge>
    <edge id=":GeibelMitte_5" function="internal">
        <lane id=":GeibelMitte_5_0" index="0" speed="13.89" length="9.10" shape="1080.79,858.80 1075.97,862.09 1072.96,863.34"/>
    </edge>
    <edge id=":GeibelMitte_13" function="internal">
        <lane id=":GeibelMitte_13_0" index="0" speed="13.89" length="9.61" shape="1072.96,863.34 1071.50,863.95 1067.39,864.39 1063.63,863.40"/>
    </edge>
    <edge id=":GeibelMitte_6" function="internal">
        <lane id=":GeibelMitte_6_0" index="0" speed="11.11" length="15.03" shape="1065.04,860.42 1067.89,861.10 1071.12,860.63 1074.73,859.00 1078.73,856.22"/>
    </edge>
    <edge id=":GeibelMitte_7" function="internal">
        <lane id=":GeibelMitte_7_0" index="0" speed="11.11" length="18.71" shape="1065.04,860.42 1068.40,862.02 1072.00,863.77 1076.33,865.89 1081.86,868.62"/>
    </edge>
    <edge id=":GeibelMitte_8" function="internal">
        <lane id=":GeibelMitte_8_0" index="0" speed="8.33" length="5.34" shape="1065.04,860.42 1068.16,862.67 1068.71,864.06"/>
    </edge>
    <edge id=":GeibelMitte_14" function="internal">
        <lane id=":GeibelMitte_14_0" index="0" speed="8.33" length="9.99" shape="1068.71,864.06 1069.28,865.49 1068.39,868.90 1065.49,872.88"/>
    </edge>
    <edge id=":GeibelMitte_9" function="internal">
        <lane id=":GeibelMitte_9_0" index="0" speed="11.11" length="5.40" shape="1063.05,870.66 1063.93,869.38 1064.08,868.24 1063.51,867.24 1062.21,866.39"/>
    </edge>
    <edge id=":GeibelMitte_10" function="internal">
        <lane id=":GeibelMitte_10_0" index="0" speed="11.11" length="21.33" shape="1063.05,870.66 1066.38,867.29 1070.69,863.23 1075.11,859.28 1078.73,856.22"/>
    </edge>
    <edge id=":GeibelMitte_11" function="internal">
        <lane id=":GeibelMitte_11_0" index="0" speed="11.11" length="10.60" shape="1063.05,870.66 1066.90,867.60 1071.32,866.24 1072.38,866.31"/>
    </edge>
    <edge id=":GeibelMitte_15" function="internal">
        <lane id=":GeibelMitte_15_0" index="0" speed="11.11" length="9.85" shape="1072.38,866.31 1076.31,866.58 1081.86,868.62"/>
    </edge>
    <edge id=":JordanNord_0" function="internal">
        <lane id=":JordanNord_0_0" index="0" speed="13.89" length="28.31" shape="1327.47,969.32 1321.18,973.13 1315.04,976.66 1309.61,980.82 1305.45,986.48"/>
    </edge>
    <edge id=":JordanNord_1" function="internal">
        <lane id=":JordanNord_1_0" index="0" speed="11.11" length="37.70" shape="1327.47,969.32 1317.46,975.11 1308.24,978.23 1299.81,978.67 1292.17,976.42"/>
    </edge>
    <edge id=":JordanNord_2" function="internal">
        <lane id=":JordanNord_2_0" index="0" speed="13.89" length="16.40" shape="1325.60,966.59 1314.82,972.77 1310.86,972.95"/>
    </edge>
    <edge id=":JordanNord_14" function="internal">
        <lane id=":JordanNord_14_0" index="0" speed="13.89" length="19.85" shape="1310.86,972.95 1309.13,973.03 1308.52,967.36 1312.99,955.77"/>
    </edge>
    <edge id=":JordanNord_3" function="internal">
        <lane id=":JordanNord_3_0" index="0" speed="13.89" length="8.43" shape="1318.94,958.64 1317.90,961.33 1318.04,962.65 1319.36,962.59 1321.87,961.15"/>
    </edge>
    <edge id=":JordanNord_4" function="internal">
        <lane id=":JordanNord_4_0" index="0" speed="13.89" length="30.92" shape="1318.94,958.64 1315.62,965.53 1312.23,972.58 1308.82,979.62 1305.45,986.48"/>
        <lane id=":JordanNord_4_1" index="1" speed="13.89" length="30.92" shape="1315.96,957.20 1312.65,964.09 1309.27,971.13 1305.87,978.16 1302.49,985.01"/>
    </edge>
    <edge id=":JordanNord_6" function="internal">
        <lane id=":JordanNord_6_0" index="0" speed="11.11" length="15.35" shape="1315.96,957.20 1309.95,967.79 1307.84,970.17"/>
    </edge>
    <edge id=":JordanNord_15" function="internal">
        <lane id=":JordanNord_15_0" index="0" speed="11.11" length="18.37" shape="1307.84,970.17 1303.99,974.52 1298.06,977.40 1292.17,976.42"/>
    </edge>
    <edge id=":JordanNord_7" function="internal">
        <lane id=":JordanNord_7_0" index="0" speed="13.89" length="21.77" shape="1295.10,970.51 1296.90,969.93 1299.48,966.80 1302.87,961.13 1307.04,952.91"/>
    </edge>
    <edge id=":JordanNord_8" function="internal">
        <lane id=":JordanNord_8_0" index="0" speed="13.89" length="32.75" shape="1293.64,973.46 1299.03,974.60 1305.85,973.39 1314.08,969.81 1323.74,963.87"/>
    </edge>
    <edge id=":JordanNord_9" function="internal">
        <lane id=":JordanNord_9_0" index="0" speed="13.89" length="6.33" shape="1293.64,973.46 1298.58,976.36 1299.03,976.77"/>
    </edge>
    <edge id=":JordanNord_16" function="internal">
        <lane id=":JordanNord_16_0" index="0" speed="13.89" length="9.74" shape="1299.03,976.77 1301.71,979.25 1303.01,982.13 1302.49,985.01"/>
    </edge>
    <edge id=":JordanNord_10" function="internal">
        <lane id=":JordanNord_10_0" index="0" speed="11.11" length="7.90" shape="1296.59,982.07 1296.83,980.67 1296.17,979.27 1294.62,977.85 1292.17,976.42"/>
    </edge>
    <edge id=":JordanNord_11" function="internal">
        <lane id=":JordanNord_11_0" index="0" speed="13.89" length="30.83" shape="1296.59,982.07 1299.65,975.86 1302.53,969.91 1305.80,963.11 1310.02,954.34"/>
        <lane id=":JordanNord_11_1" index="1" speed="13.89" length="30.83" shape="1299.54,983.54 1302.61,977.32 1305.49,971.37 1308.77,964.55 1312.99,955.77"/>
    </edge>
    <edge id=":JordanNord_13" function="internal">
        <lane id=":JordanNord_13_0" index="0" speed="13.89" length="31.52" shape="1299.54,983.54 1304.04,977.49 1310.22,972.47 1317.10,968.08 1323.74,963.87"/>
    </edge>
    <edge id=":JordanSued_0" function="internal">
        <lane id=":JordanSued_0_0" index="0" speed="13.89" length="12.55" shape="1866.66,607.72 1863.30,606.33 1860.19,605.82 1857.34,606.19 1854.74,607.44"/>
    </edge>
    <edge id=":JordanSued_1" function="internal">
        <lane id=":JordanSued_1_0" index="0" speed="13.89" length="22.01" shape="1866.66,607.72 1861.05,604.20 1857.48,601.11 1854.04,598.14 1848.83,595.02"/>
        <lane id=":JordanSued_1_1" index="1" speed="13.89" length="22.01" shape="1868.20,604.80 1862.56,601.27 1858.96,598.16 1855.50,595.18 1850.28,592.05"/>
    </edge>
    <edge id=":JordanSued_3" function="internal">
        <lane id=":JordanSued_3_0" index="0" speed="13.89" length="9.15" shape="1869.73,601.87 1865.77,599.14 1863.86,596.19 1863.89,595.37"/>
    </edge>
    <edge id=":JordanSued_14" function="internal">
        <lane id=":JordanSued_14_0" index="0" speed="13.89" length="6.40" shape="1863.89,595.37 1863.99,593.01 1866.18,589.61"/>
    </edge>
    <edge id=":JordanSued_4" function="internal">
        <lane id=":JordanSued_4_0" index="0" speed="13.89" length="5.95" shape="1871.05,594.07 1869.96,595.58 1869.63,596.90 1870.07,598.02 1871.27,598.95"/>
    </edge>
    <edge id=":JordanSued_5" function="internal">
        <lane id=":JordanSued_5_0" index="0" speed="13.89" length="20.80" shape="1871.05,594.07 1866.81,598.48 1863.46,601.40 1859.82,604.00 1854.74,607.44"/>
        <lane id=":JordanSued_5_1" index="1" speed="13.89" length="20.80" shape="1868.61,591.84 1864.47,596.17 1861.31,598.93 1857.86,601.36 1852.87,604.72"/>
    </edge>
    <edge id=":JordanSued_7" function="internal">
        <lane id=":JordanSued_7_0" index="0" speed="13.89" length="6.10" shape="1868.61,591.84 1865.29,594.24 1863.32,594.63"/>
    </edge>
    <edge id=":JordanSued_15" function="internal">
        <lane id=":JordanSued_15_0" index="0" speed="13.89" length="13.57" shape="1863.32,594.63 1861.13,595.07 1856.12,594.34 1850.28,592.05"/>
    </edge>
    <edge id=":JordanSued_8" function="internal">
        <lane id=":JordanSued_8_0" index="0" speed="13.89" length="13.83" shape="1853.19,586.13 1858.19,588.40 1862.02,589.74 1864.68,590.14 1866.18,589.61"/>
    </edge>
    <edge id=":JordanSued_9" function="internal">