<?xml version="1.0" encoding="UTF-8"?>

<!-- generated on 05/09/18 12:06:06 by SUMO od2trips Version 0.31.0
<?xml version="1.0" encoding="UTF-8"?>

<configuration xmlns:xsi="http://www.w3.org/2001/XMLSchema-instance" xsi:noNamespaceSchemaLocation="http://sumo.dlr.de/xsd/od2tripsConfiguration.xsd">

    <input>
        <taz-files value="suedstadt.taz.xml"/>
        <od-matrix-files value="suedstadt_OD_Matrix.mtx"/>
    </input>

    <output>
        <output-file value="suedstadt.trips.xml"/>
    </output>

</configuration>
-->

<routes xmlns:xsi="http://www.w3.org/2001/XMLSchema-instance" xsi:noNamespaceSchemaLocation="http://sumo.dlr.de/xsd/routes_file.xsd">
    <trip id="3815" depart="57600.77" from="gneE44" to="gneE29" fromTaz="N" toTaz="P" departLane="free" departSpeed="max"/>
    <trip id="3164" depart="57601.88" from="gneE32" to="gneE9" fromTaz="L" toTaz="B" departLane="free" departSpeed="max"/>
    <trip id="280" depart="57602.83" from="gneE3" to="buergermeisterfinkout" fromTaz="A" toTaz="N" departLane="free" departSpeed="max"/>
    <trip id="3001" depart="57604.33" from="gneE33" to="andertiefenriedenordout" fromTaz="K" toTaz="J" departLane="free" departSpeed="max"/>
    <trip id="515" depart="57604.77" from="gneE8" to="altenbekenerwestout" fromTaz="B" toTaz="L" departLane="free" departSpeed="max"/>
    <trip id="3844" depart="57604.80" from="gneE1" to="gneE2" fromTaz="O" toTaz="A" departLane="free" departSpeed="max"/>
    <trip id="325" depart="57608.55" from="gneE8" to="gneE2" fromTaz="B" toTaz="A" departLane="free" departSpeed="max"/>
    <trip id="1829" depart="57609.34" from="gneE36" to="gneE2" fromTaz="H" toTaz="A" departLane="free" departSpeed="max"/>
    <trip id="2234" depart="57610.87" from="gneE36" to="gneE0" fromTaz="H" toTaz="O" departLane="free" departSpeed="max"/>
    <trip id="2993" depart="57611.00" from="gneE33" to="andertiefenriedenordout" fromTaz="K" toTaz="J" departLane="free" departSpeed="max"/>
    <trip id="2628" depart="57611.33" from="gneE35" to="stresemannalleeout" fromTaz="J" toTaz="H" departLane="free" departSpeed="max"/>
    <trip id="2356" depart="57611.57" from="gneE34" to="gneE22" fromTaz="I" toTaz="E" departLane="free" departSpeed="max"/>
    <trip id="4195" depart="57611.71" from="gneE30" to="gneE7" fromTaz="P" toTaz="C" departLane="free" departSpeed="max"/>
    <trip id="315" depart="57612.93" from="gneE3" to="gneE29" fromTaz="A" toTaz="P" departLane="free" departSpeed="max"/>
    <trip id="2723" depart="57614.43" from="gneE35" to="gneE29" fromTaz="J" toTaz="P" departLane="free" departSpeed="max"/>
    <trip id="2526" depart="57615.90" from="gneE35" to="stresemannalleeout" fromTaz="J" toTaz="H" departLane="free" departSpeed="max"/>
    <trip id="1338" depart="57616.08" from="gneE40" to="gneE2" fromTaz="F" toTaz="A" departLane="free" departSpeed="max"/>
    <trip id="3834" depart="57616.08" from="gneE1" to="gneE2" fromTaz="O" toTaz="A" departLane="free" departSpeed="max"/>
    <trip id="87" depart="57616.72" from="gneE3" to="mainzerout" fromTaz="A" toTaz="G" departLane="free" departSpeed="max"/>
    <trip id="9" depart="57618.39" from="gneE3" to="gneE9" fromTaz="A" toTaz="B" departLane="free" departSpeed="max"/>
    <trip id="741" depart="57618.97" from="gneE6" to="andertiefenriedeout" fromTaz="C" toTaz="I" departLane="free" departSpeed="max"/>
    <trip id="408" depart="57619.61" from="gneE8" to="andertiefenriedeout" fromTaz="B" toTaz="I" departLane="free" departSpeed="max"/>
    <trip id="1584" depart="57621.76" from="gneE40" to="hildesheimerout" fromTaz="F" toTaz="K" departLane="free" departSpeed="max"/>
    <trip id="4243" depart="57623.87" from="gneE30" to="gneE22" fromTaz="P" toTaz="E" departLane="free" departSpeed="max"/>
    <trip id="1133" depart="57623.89" from="gneE21" to="andertiefenriedeout" fromTaz="E" toTaz="I" departLane="free" departSpeed="max"/>
    <trip id="1415" depart="57624.44" from="gneE40" to="gneE22" fromTaz="F" toTaz="E" departLane="free" departSpeed="max"/>
    <trip id="3761" depart="57625.71" from="gneE44" to="hildesheimerout" fromTaz="N" toTaz="K" departLane="free" departSpeed="max"/>
    <trip id="3599" depart="57625.74" from="gneE26" to="gneE0" fromTaz="M" toTaz="O" departLane="free" departSpeed="max"/>
    <trip id="1756" depart="57625.86" from="gneE39" to="gneE22" fromTaz="G" toTaz="E" departLane="free" departSpeed="max"/>
    <trip id="3404" depart="57627.26" from="gneE32" to="gneE0" fromTaz="L" toTaz="O" departLane="free" departSpeed="max"/>
    <trip id="60" depart="57627.48" from="gneE3" to="mainzerout" fromTaz="A" toTaz="G" departLane="free" departSpeed="max"/>
    <trip id="3930" depart="57628.72" from="gneE1" to="gneE22" fromTaz="O" toTaz="E" departLane="free" departSpeed="max"/>
    <trip id="3521" depart="57629.89" from="gneE26" to="hildesheimerout" fromTaz="M" toTaz="K" departLane="free" departSpeed="max"/>
    <trip id="2502" depart="57630.03" from="gneE35" to="gneE22" fromTaz="J" toTaz="E" departLane="free" departSpeed="max"/>
    <trip id="1374" depart="57632.14" from="gneE40" to="gneE2" fromTaz="F" toTaz="A" departLane="free" departSpeed="max"/>
    <trip id="1961" depart="57632.84" from="gneE36" to="mainzerout" fromTaz="H" toTaz="G" departLane="free" departSpeed="max"/>
    <trip id="1733" depart="57635.00" from="gneE39" to="gneE22" fromTaz="G" toTaz="E" departLane="free" departSpeed="max"/>
    <trip id="3637" depart="57635.90" from="gneE44" to="gneE2" fromTaz="N" toTaz="A" departLane="free" departSpeed="max"/>
    <trip id="2984" depart="57636.22" from="gneE33" to="andertiefenriedenordout" fromTaz="K" toTaz="J" departLane="free" departSpeed="max"/>
    <trip id="2347" depart="57637.22" from="gneE34" to="gneE22" fromTaz="I" toTaz="E" departLane="free" departSpeed="max"/>
    <trip id="2952" depart="57637.59" from="gneE33" to="stresemannalleeout" fromTaz="K" toTaz="H" departLane="free" departSpeed="max"/>
    <trip id="522" depart="57637.70" from="gneE8" to="altenbekenerwestout" fromTaz="B" toTaz="L" departLane="free" departSpeed="max"/>
    <trip id="4296" depart="57638.76" from="gneE30" to="mainzerout" fromTaz="P" toTaz="G" departLane="free" departSpeed="max"/>
    <trip id="140" depart="57639.03" from="gneE3" to="stresemannalleeout" fromTaz="A" toTaz="H" departLane="free" departSpeed="max"/>
    <trip id="3340" depart="57642.24" from="gneE32" to="gneE0" fromTaz="L" toTaz="O" departLane="free" departSpeed="max"/>
    <trip id="3589" depart="57642.31" from="gneE26" to="gneE0" fromTaz="M" toTaz="O" departLane="free" departSpeed="max"/>
    <trip id="3647" depart="57642.53" from="gneE44" to="gneE9" fromTaz="N" toTaz="B" departLane="free" departSpeed="max"/>
    <trip id="3419" depart="57642.56" from="gneE26" to="gneE7" fromTaz="M" toTaz="C" departLane="free" departSpeed="max"/>
    <trip id="1403" depart="57644.99" from="gneE40" to="gneE22" fromTaz="F" toTaz="E" departLane="free" departSpeed="max"/>
    <trip id="3728" depart="57646.80" from="gneE44" to="stresemannalleeout" fromTaz="N" toTaz="H" departLane="free" departSpeed="max"/>
    <trip id="2832" depart="57646.85" from="gneE33" to="gneE9" fromTaz="K" toTaz="B" departLane="free" departSpeed="max"/>
    <trip id="566" depart="57646.90" from="gneE8" to="buergermeisterfinkout" fromTaz="B" toTaz="N" departLane="free" departSpeed="max"/>
    <trip id="3621" depart="57647.47" from="gneE26" to="gneE29" fromTaz="M" toTaz="P" departLane="free" departSpeed="max"/>
    <trip id="764" depart="57647.95" from="gneE6" to="altenbekenerwestout" fromTaz="C" toTaz="L" departLane="free" departSpeed="max"/>
    <trip id="1233" depart="57649.05" from="gneE21" to="gneE25" fromTaz="E" toTaz="M" departLane="free" departSpeed="max"/>
    <trip id="2365" depart="57649.06" from="gneE34" to="gneE22" fromTaz="I" toTaz="E" departLane="free" departSpeed="max"/>
    <trip id="2322" depart="57649.22" from="gneE34" to="gneE43" fromTaz="I" toTaz="D" departLane="free" departSpeed="max"/>
    <trip id="4385" depart="57649.85" from="gneE30" to="altenbekenerwestout" fromTaz="P" toTaz="L" departLane="free" departSpeed="max"/>
    <trip id="2836" depart="57649.86" from="gneE33" to="gneE9" fromTaz="K" toTaz="B" departLane="free" departSpeed="max"/>
    <trip id="1433" depart="57651.33" from="gneE40" to="gneE22" fromTaz="F" toTaz="E" departLane="free" departSpeed="max"/>
    <trip id="3123" depart="57652.62" from="gneE32" to="gneE9" fromTaz="L" toTaz="B" departLane="free" departSpeed="max"/>
    <trip id="3534" depart="57653.26" from="gneE26" to="hildesheimerout" fromTaz="M" toTaz="K" departLane="free" departSpeed="max"/>
    <trip id="1660" depart="57653.94" from="gneE39" to="gneE7" fromTaz="G" toTaz="C" departLane="free" departSpeed="max"/>
    <trip id="1931" depart="57655.13" from="gneE36" to="gneE7" fromTaz="H" toTaz="C" departLane="free" departSpeed="max"/>
    <trip id="1315" depart="57655.39" from="gneE21" to="gneE0" fromTaz="E" toTaz="O" departLane="free" departSpeed="max"/>
    <trip id="5" depart="57655.65" from="gneE3" to="gneE9" fromTaz="A" toTaz="B" departLane="free" departSpeed="max"/>
    <trip id="2766" depart="57655.81" from="gneE33" to="gneE9" fromTaz="K" toTaz="B" departLane="free" departSpeed="max"/>
    <trip id="3362" depart="57656.04" from="gneE32" to="gneE0" fromTaz="L" toTaz="O" departLane="free" departSpeed="max"/>
    <trip id="1853" depart="57656.27" from="gneE36" to="gneE2" fromTaz="H" toTaz="A" departLane="free" departSpeed="max"/>
    <trip id="2708" depart="57658.71" from="gneE35" to="hildesheimerout" fromTaz="J" toTaz="K" departLane="free" departSpeed="max"/>
    <trip id="3316" depart="57658.83" from="gneE32" to="gneE25" fromTaz="L" toTaz="M" departLane="free" departSpeed="max"/>
    <trip id="3638" depart="57659.01" from="gneE44" to="gneE2" fromTaz="N" toTaz="A" departLane="free" departSpeed="max"/>
    <trip id="1041" depart="57659.07" from="gneE21" to="gneE2" fromTaz="E" toTaz="A" departLane="free" departSpeed="max"/>
    <trip id="1417" depart="57659.85" from="gneE40" to="gneE22" fromTaz="F" toTaz="E" departLane="free" departSpeed="max"/>
    <trip id="3561" depart="57660.66" from="gneE26" to="gneE0" fromTaz="M" toTaz="O" departLane="free" departSpeed="max"/>
    <trip id="1143" depart="57663.18" from="gneE21" to="andertiefenriedeout" fromTaz="E" toTaz="I" departLane="free" departSpeed="max"/>
    <trip id="2164" depart="57664.13" from="gneE36" to="gneE25" fromTaz="H" toTaz="M" departLane="free" departSpeed="max"/>
    <trip id="1852" depart="57665.23" from="gneE36" to="gneE2" fromTaz="H" toTaz="A" departLane="free" departSpeed="max"/>
    <trip id="1543" depart="57666.73" from="gneE40" to="andertiefenriedeout" fromTaz="F" toTaz="I" departLane="free" departSpeed="max"/>
    <trip id="2387" depart="57666.85" from="gneE34" to="gneE22" fromTaz="I" toTaz="E" departLane="free" departSpeed="max"/>
    <trip id="3911" depart="57667.39" from="gneE1" to="gneE7" fromTaz="O" toTaz="C" departLane="free" departSpeed="max"/>
    <trip id="1963" depart="57668.70" from="gneE36" to="mainzerout" fromTaz="H" toTaz="G" departLane="free" departSpeed="max"/>
    <trip id="2399" depart="57669.81" from="gneE34" to="lindemannalleeout" fromTaz="I" toTaz="F" departLane="free" departSpeed="max"/>
    <trip id="1810" depart="57670.69" from="gneE39" to="gneE29" fromTaz="G" toTaz="P" departLane="free" departSpeed="max"/>
    <trip id="592" depart="57670.72" from="gneE8" to="buergermeisterfinkout" fromTaz="B" toTaz="N" departLane="free" departSpeed="max"/>
    <trip id="3640" depart="57671.75" from="gneE44" to="gneE2" fromTaz="N" toTaz="A" departLane="free" departSpeed="max"/>
    <trip id="1065" depart="57672.86" from="gneE21" to="mainzerout" fromTaz="E" toTaz="G" departLane="free" departSpeed="max"/>
    <trip id="4192" depart="57673.45" from="gneE30" to="gneE7" fromTaz="P" toTaz="C" departLane="free" departSpeed="max"/>
    <trip id="582" depart="57673.98" from="gneE8" to="buergermeisterfinkout" fromTaz="B" toTaz="N" departLane="free" departSpeed="max"/>
    <trip id="4028" depart="57674.05" from="gneE1" to="hildesheimerout" fromTaz="O" toTaz="K" departLane="free" departSpeed="max"/>
    <trip id="3003" depart="57674.14" from="gneE33" to="andertiefenriedenordout" fromTaz="K" toTaz="J" departLane="free" departSpeed="max"/>
    <trip id="2521" depart="57674.54" from="gneE35" to="stresemannalleeout" fromTaz="J" toTaz="H" departLane="free" departSpeed="max"/>
    <trip id="4375" depart="57675.03" from="gneE30" to="hildesheimerout" fromTaz="P" toTaz="K" departLane="free" departSpeed="max"/>
    <trip id="704" depart="57676.05" from="gneE6" to="stresemannalleeout" fromTaz="C" toTaz="H" departLane="free" departSpeed="max"/>
    <trip id="2348" depart="57677.29" from="gneE34" to="gneE22" fromTaz="I" toTaz="E" departLane="free" departSpeed="max"/>
    <trip id="4087" depart="57677.78" from="gneE1" to="altenbekenerwestout" fromTaz="O" toTaz="L" departLane="free" departSpeed="max"/>
    <trip id="414" depart="57677.89" from="gneE8" to="andertiefenriedeout" fromTaz="B" toTaz="I" departLane="free" departSpeed="max"/>
    <trip id="2599" depart="57680.18" from="gneE35" to="stresemannalleeout" fromTaz="J" toTaz="H" departLane="free" departSpeed="max"/>
    <trip id="4459" depart="57680.40" from="gneE30" to="gneE0" fromTaz="P" toTaz="O" departLane="free" departSpeed="max"/>
    <trip id="3818" depart="57681.55" from="gneE44" to="gneE29" fromTaz="N" toTaz="P" departLane="free" departSpeed="max"/>
    <trip id="110" depart="57681.63" from="gneE3" to="mainzerout" fromTaz="A" toTaz="G" departLane="free" departSpeed="max"/>
    <trip id="3385" depart="57682.31" from="gneE32" to="gneE0" fromTaz="L" toTaz="O" departLane="free" departSpeed="max"/>
    <trip id="3569" depart="57683.03" from="gneE26" to="gneE0" fromTaz="M" toTaz="O" departLane="free" departSpeed="max"/>
    <trip id="3128" depart="57683.37" from="gneE32" to="gneE9" fromTaz="L" toTaz="B" departLane="free" departSpeed="max"/>
    <trip id="2727" depart="57686.44" from="gneE33" to="gneE2" fromTaz="K" toTaz="A" departLane="free" departSpeed="max"/>
    <trip id="188" depart="57688.60" from="gneE3" to="andertiefenriedeout" fromTaz="A" toTaz="I" departLane="free" departSpeed="max"/>
    <trip id="821" depart="57688.88" from="gneE6" to="buergermeisterfinkout" fromTaz="C" toTaz="N" departLane="free" departSpeed="max"/>
    <trip id="997" depart="57689.14" from="lutherin.5" to="hildesheimerout" fromTaz="D" toTaz="K" departLane="free" departSpeed="max"/>
    <trip id="681" depart="57689.32" from="gneE6" to="stresemannalleeout" fromTaz="C" toTaz="H" departLane="free" departSpeed="max"/>
    <trip id="1685" depart="57690.97" from="gneE39" to="gneE43" fromTaz="G" toTaz="D" departLane="free" departSpeed="max"/>
    <trip id="4433" depart="57691.43" from="gneE30" to="gneE25" fromTaz="P" toTaz="M" departLane="free" departSpeed="max"/>
    <trip id="899" depart="57692.51" from="gneE6" to="gneE29" fromTaz="C" toTaz="P" departLane="free" departSpeed="max"/>
    <trip id="3285" depart="57692.85" from="gneE32" to="andertiefenriedeout" fromTaz="L" toTaz="I" departLane="free" departSpeed="max"/>
    <trip id="1354" depart="57694.16" from="gneE40" to="gneE2" fromTaz="F" toTaz="A" departLane="free" departSpeed="max"/>
    <trip id="2660" depart="57694.22" from="gneE35" to="andertiefenriedeout" fromTaz="J" toTaz="I" departLane="free" departSpeed="max"/>
    <trip id="3692" depart="57695.74" from="gneE44" to="gneE7" fromTaz="N" toTaz="C" departLane="free" departSpeed="max"/>
    <trip id="907" depart="57695.90" from="lutherin.5" to="gneE2" fromTaz="D" toTaz="A" departLane="free" departSpeed="max"/>
    <trip id="3770" depart="57696.32" from="gneE44" to="gneE25" fromTaz="N" toTaz="M" departLane="free" departSpeed="max"/>
    <trip id="1006" depart="57696.84" from="lutherin.5" to="gneE29" fromTaz="D" toTaz="P" departLane="free" departSpeed="max"/>
    <trip id="3682" depart="57698.40" from="gneE44" to="gneE9" fromTaz="N" toTaz="B" departLane="free" departSpeed="max"/>
    <trip id="3971" depart="57699.63" from="gneE1" to="andertiefenriedeout" fromTaz="O" toTaz="I" departLane="free" departSpeed="max"/>
    <trip id="1371" depart="57700.26" from="gneE40" to="gneE2" fromTaz="F" toTaz="A" departLane="free" departSpeed="max"/>
    <trip id="4440" depart="57700.90" from="gneE30" to="gneE25" fromTaz="P" toTaz="M" departLane="free" departSpeed="max"/>
    <trip id="220" depart="57701.43" from="gneE3" to="hildesheimerout" fromTaz="A" toTaz="K" departLane="free" departSpeed="max"/>
    <trip id="3986" depart="57703.31" from="gneE1" to="andertiefenriedenordout" fromTaz="O" toTaz="J" departLane="free" departSpeed="max"/>
    <trip id="1616" depart="57703.83" from="gneE39" to="gneE7" fromTaz="G" toTaz="C" departLane="free" departSpeed="max"/>
    <trip id="4394" depart="57705.13" from="gneE30" to="altenbekenerwestout" fromTaz="P" toTaz="L" departLane="free" departSpeed="max"/>
    <trip id="504" depart="57705.18" from="gneE8" to="altenbekenerwestout" fromTaz="B" toTaz="L" departLane="free" departSpeed="max"/>
    <trip id="1741" depart="57705.24" from="gneE39" to="gneE22" fromTaz="G" toTaz="E" departLane="free" departSpeed="max"/>
    <trip id="395" depart="57706.94" from="gneE8" to="andertiefenriedeout" fromTaz="B" toTaz="I" departLane="free" departSpeed="max"/>
    <trip id="363" depart="57707.93" from="gneE8" to="gneE22" fromTaz="B" toTaz="E" departLane="free" departSpeed="max"/>
    <trip id="688" depart="57708.25" from="gneE6" to="stresemannalleeout" fromTaz="C" toTaz="H" departLane="free" departSpeed="max"/>
    <trip id="3184" depart="57708.26" from="gneE32" to="gneE9" fromTaz="L" toTaz="B" departLane="free" departSpeed="max"/>
    <trip id="865" depart="57708.86" from="gneE6" to="gneE0" fromTaz="C" toTaz="O" departLane="free" departSpeed="max"/>
    <trip id="2818" depart="57709.13" from="gneE33" to="gneE9" fromTaz="K" toTaz="B" departLane="free" departSpeed="max"/>
    <trip id="381" depart="57709.27" from="gneE8" to="andertiefenriedeout" fromTaz="B" toTaz="I" departLane="free" departSpeed="max"/>
    <trip id="876" depart="57710.09" from="gneE6" to="gneE0" fromTaz="C" toTaz="O" departLane="free" departSpeed="max"/>
    <trip id="4264" depart="57711.10" from="gneE30" to="gneE22" fromTaz="P" toTaz="E" departLane="free" departSpeed="max"/>
    <trip id="2761" depart="57712.78" from="gneE33" to="gneE2" fromTaz="K" toTaz="A" departLane="free" departSpeed="max"/>
    <trip id="1635" depart="57713.22" from="gneE39" to="gneE7" fromTaz="G" toTaz="C" departLane="free" departSpeed="max"/>
    <trip id="4412" depart="57714.65" from="gneE30" to="gneE25" fromTaz="P" toTaz="M" departLane="free" departSpeed="max"/>
    <trip id="366" depart="57714.89" from="gneE8" to="gneE22" fromTaz="B" toTaz="E" departLane="free" departSpeed="max"/>
    <trip id="4161" depart="57715.00" from="gneE30" to="gneE2" fromTaz="P" toTaz="A" departLane="free" departSpeed="max"/>
    <trip id="128" depart="57716.59" from="gneE3" to="mainzerout" fromTaz="A" toTaz="G" departLane="free" departSpeed="max"/>
    <trip id="3240" depart="57718.42" from="gneE32" to="mainzerout" fromTaz="L" toTaz="G" departLane="free" departSpeed="max"/>
    <trip id="3875" depart="57719.01" from="gneE1" to="gneE9" fromTaz="O" toTaz="B" departLane="free" departSpeed="max"/>
    <trip id="951" depart="57720.35" from="lutherin.5" to="mainzerout" fromTaz="D" toTaz="G" departLane="free" departSpeed="max"/>
    <trip id="1932" depart="57721.15" from="gneE36" to="gneE7" fromTaz="H" toTaz="C" departLane="free" departSpeed="max"/>
    <trip id="1816" depart="57721.91" from="gneE39" to="gneE29" fromTaz="G" toTaz="P" departLane="free" departSpeed="max"/>
    <trip id="4263" depart="57723.85" from="gneE30" to="gneE22" fromTaz="P" toTaz="E" departLane="free" departSpeed="max"/>
    <trip id="4053" depart="57724.14" from="gneE1" to="hildesheimerout" fromTaz="O" toTaz="K" departLane="free" departSpeed="max"/>
    <trip id="935" depart="57727.28" from="lutherin.5" to="mainzerout" fromTaz="D" toTaz="G" departLane="free" departSpeed="max"/>
    <trip id="3939" depart="57727.66" from="gneE1" to="gneE22" fromTaz="O" toTaz="E" departLane="free" departSpeed="max"/>
    <trip id="3584" depart="57728.00" from="gneE26" to="gneE0" fromTaz="M" toTaz="O" departLane="free" departSpeed="max"/>
    <trip id="1500" depart="57728.61" from="gneE40" to="mainzerout" fromTaz="F" toTaz="G" departLane="free" departSpeed="max"/>
    <trip id="3906" depart="57728.91" from="gneE1" to="gneE7" fromTaz="O" toTaz="C" departLane="free" departSpeed="max"/>
    <trip id="3028" depart="57732.47" from="gneE33" to="gneE25" fromTaz="K" toTaz="M" departLane="free" departSpeed="max"/>
    <trip id="4434" depart="57732.53" from="gneE30" to="gneE25" fromTaz="P" toTaz="M" departLane="free" departSpeed="max"/>
    <trip id="3661" depart="57732.83" from="gneE44" to="gneE9" fromTaz="N" toTaz="B" departLane="free" departSpeed="max"/>
    <trip id="4205" depart="57733.90" from="gneE30" to="gneE7" fromTaz="P" toTaz="C" departLane="free" departSpeed="max"/>
    <trip id="3026" depart="57734.90" from="gneE33" to="gneE25" fromTaz="K" toTaz="M" departLane="free" departSpeed="max"/>
    <trip id="1243" depart="57735.95" from="gneE21" to="gneE25" fromTaz="E" toTaz="M" departLane="free" departSpeed="max"/>
    <trip id="1633" depart="57736.02" from="gneE39" to="gneE7" fromTaz="G" toTaz="C" departLane="free" departSpeed="max"/>
    <trip id="2758" depart="57736.05" from="gneE33" to="gneE2" fromTaz="K" toTaz="A" departLane="free" departSpeed="max"/>
    <trip id="2462" depart="57736.78" from="gneE34" to="hildesheimerout" fromTaz="I" toTaz="K" departLane="free" departSpeed="max"/>
    <trip id="4236" depart="57737.35" from="gneE30" to="gneE22" fromTaz="P" toTaz="E" departLane="free" departSpeed="max"/>
    <trip id="2466" depart="57737.39" from="gneE34" to="hildesheimerout" fromTaz="I" toTaz="K" departLane="free" departSpeed="max"/>
    <trip id="912" depart="57738.74" from="lutherin.5" to="gneE2" fromTaz="D" toTaz="A" departLane="free" departSpeed="max"/>
    <trip id="3723" depart="57740.44" from="gneE44" to="stresemannalleeout" fromTaz="N" toTaz="H" departLane="free" departSpeed="max"/>
    <trip id="2607" depart="57741.46" from="gneE35" to="stresemannalleeout" fromTaz="J" toTaz="H" departLane="free" departSpeed="max"/>
    <trip id="2963" depart="57743.44" from="gneE33" to="andertiefenriedenordout" fromTaz="K" toTaz="J" departLane="free" departSpeed="max"/>
    <trip id="3725" depart="57743.80" from="gneE44" to="stresemannalleeout" fromTaz="N" toTaz="H" departLane="free" departSpeed="max"/>
    <trip id="3208" depart="57744.31" from="gneE32" to="gneE7" fromTaz="L" toTaz="C" departLane="free" departSpeed="max"/>
    <trip id="642" depart="57745.86" from="gneE6" to="gneE2" fromTaz="C" toTaz="A" departLane="free" departSpeed="max"/>
    <trip id="3498" depart="57746.07" from="gneE26" to="stresemannalleeout" fromTaz="M" toTaz="H" departLane="free" departSpeed="max"/>
    <trip id="1562" depart="57746.43" from="gneE40" to="andertiefenriedenordout" fromTaz="F" toTaz="J" departLane="free" departSpeed="max"/>
    <trip id="4009" depart="57748.43" from="gneE1" to="andertiefenriedenordout" fromTaz="O" toTaz="J" departLane="free" departSpeed="max"/>
    <trip id="194" depart="57750.67" from="gneE3" to="hildesheimerout" fromTaz="A" toTaz="K" departLane="free" departSpeed="max"/>
    <trip id="2703" depart="57750.88" from="gneE35" to="hildesheimerout" fromTaz="J" toTaz="K" departLane="free" departSpeed="max"/>
    <trip id="2463" depart="57751.13" from="gneE34" to="hildesheimerout" fromTaz="I" toTaz="K" departLane="free" departSpeed="max"/>
    <trip id="3707" depart="57753.01" from="gneE44" to="gneE22" fromTaz="N" toTaz="E" departLane="free" departSpeed="max"/>
    <trip id="560" depart="57753.62" from="gneE8" to="buergermeisterfinkout" fromTaz="B" toTaz="N" departLane="free" departSpeed="max"/>
    <trip id="1826" depart="57754.57" from="gneE39" to="gneE29" fromTaz="G" toTaz="P" departLane="free" departSpeed="max"/>
    <trip id="1535" depart="57754.88" from="gneE40" to="andertiefenriedeout" fromTaz="F" toTaz="I" departLane="free" departSpeed="max"/>
    <trip id="4167" depart="57757.79" from="gneE30" to="gneE2" fromTaz="P" toTaz="A" departLane="free" departSpeed="max"/>
    <trip id="1402" depart="57758.23" from="gneE40" to="gneE43" fromTaz="F" toTaz="D" departLane="free" departSpeed="max"/>
    <trip id="1959" depart="57758.29" from="gneE36" to="mainzerout" fromTaz="H" toTaz="G" departLane="free" departSpeed="max"/>
    <trip id="4438" depart="57759.23" from="gneE30" to="gneE25" fromTaz="P" toTaz="M" departLane="free" departSpeed="max"/>
    <trip id="644" depart="57759.54" from="gneE6" to="gneE2" fromTaz="C" toTaz="A" departLane="free" departSpeed="max"/>
    <trip id="1273" depart="57762.12" from="gneE21" to="buergermeisterfinkout" fromTaz="E" toTaz="N" departLane="free" departSpeed="max"/>
    <trip id="3283" depart="57762.24" from="gneE32" to="andertiefenriedeout" fromTaz="L" toTaz="I" departLane="free" departSpeed="max"/>
    <trip id="2036" depart="57762.42" from="gneE36" to="andertiefenriedeout" fromTaz="H" toTaz="I" departLane="free" departSpeed="max"/>
    <trip id="19" depart="57763.02" from="gneE3" to="gneE9" fromTaz="A" toTaz="B" departLane="free" departSpeed="max"/>
    <trip id="2893" depart="57763.13" from="gneE33" to="gneE7" fromTaz="K" toTaz="C" departLane="free" departSpeed="max"/>
    <trip id="4113" depart="57763.65" from="gneE1" to="gneE25" fromTaz="O" toTaz="M" departLane="free" departSpeed="max"/>
    <trip id="2792" depart="57764.21" from="gneE33" to="gneE9" fromTaz="K" toTaz="B" departLane="free" departSpeed="max"/>
    <trip id="3833" depart="57766.63" from="gneE1" to="gneE2" fromTaz="O" toTaz="A" departLane="free" departSpeed="max"/>
    <trip id="562" depart="57767.76" from="gneE8" to="buergermeisterfinkout" fromTaz="B" toTaz="N" departLane="free" departSpeed="max"/>
    <trip id="4245" depart="57768.22" from="gneE30" to="gneE22" fromTaz="P" toTaz="E" departLane="free" departSpeed="max"/>
    <trip id="2407" depart="57768.45" from="gneE34" to="lindemannalleeout" fromTaz="I" toTaz="F" departLane="free" departSpeed="max"/>
    <trip id="3649" depart="57768.50" from="gneE44" to="gneE9" fromTaz="N" toTaz="B" departLane="free" departSpeed="max"/>
    <trip id="1448" depart="57768.69" from="gneE40" to="mainzerout" fromTaz="F" toTaz="G" departLane="free" departSpeed="max"/>
    <trip id="2370" depart="57768.94" from="gneE34" to="gneE22" fromTaz="I" toTaz="E" departLane="free" departSpeed="max"/>
    <trip id="4404" depart="57769.20" from="gneE30" to="altenbekenerwestout" fromTaz="P" toTaz="L" departLane="free" departSpeed="max"/>
    <trip id="1666" depart="57769.37" from="gneE39" to="gneE7" fromTaz="G" toTaz="C" departLane="free" departSpeed="max"/>
    <trip id="91" depart="57769.75" from="gneE3" to="mainzerout" fromTaz="A" toTaz="G" departLane="free" departSpeed="max"/>
    <trip id="3311" depart="57770.35" from="gneE32" to="gneE25" fromTaz="L" toTaz="M" departLane="free" departSpeed="max"/>
    <trip id="2452" depart="57772.29" from="gneE34" to="hildesheimerout" fromTaz="I" toTaz="K" departLane="free" departSpeed="max"/>
    <trip id="4048" depart="57772.53" from="gneE1" to="hildesheimerout" fromTaz="O" toTaz="K" departLane="free" departSpeed="max"/>
    <trip id="2010" depart="57773.10" from="gneE36" to="andertiefenriedeout" fromTaz="H" toTaz="I" departLane="free" departSpeed="max"/>
    <trip id="2885" depart="57774.20" from="gneE33" to="gneE7" fromTaz="K" toTaz="C" departLane="free" departSpeed="max"/>
    <trip id="2535" depart="57774.70" from="gneE35" to="stresemannalleeout" fromTaz="J" toTaz="H" departLane="free" departSpeed="max"/>
    <trip id="2506" depart="57777.31" from="gneE35" to="gneE22" fromTaz="J" toTaz="E" departLane="free" departSpeed="max"/>
    <trip id="4171" depart="57777.54" from="gneE30" to="gneE2" fromTaz="P" toTaz="A" departLane="free" departSpeed="max"/>
    <trip id="1043" depart="57779.28" from="gneE21" to="gneE2" fromTaz="E" toTaz="A" departLane="free" departSpeed="max"/>
    <trip id="136" depart="57779.52" from="gneE3" to="mainzerout" fromTaz="A" toTaz="G" departLane="free" departSpeed="max"/>
    <trip id="2195" depart="57779.79" from="gneE36" to="buergermeisterfinkout" fromTaz="H" toTaz="N" departLane="free" departSpeed="max"/>
    <trip id="2385" depart="57780.41" from="gneE34" to="gneE22" fromTaz="I" toTaz="E" departLane="free" departSpeed="max"/>
    <trip id="4154" depart="57780.43" from="gneE30" to="gneE2" fromTaz="P" toTaz="A" departLane="free" departSpeed="max"/>
    <trip id="327" depart="57781.60" from="gneE8" to="gneE2" fromTaz="B" toTaz="A" departLane="free" departSpeed="max"/>
    <trip id="1625" depart="57781.97" from="gneE39" to="gneE7" fromTaz="G" toTaz="C" departLane="free" departSpeed="max"/>
    <trip id="453" depart="57782.42" from="gneE8" to="altenbekenerwestout" fromTaz="B" toTaz="L" departLane="free" departSpeed="max"/>
    <trip id="3180" depart="57783.15" from="gneE32" to="gneE9" fromTaz="L" toTaz="B" departLane="free" departSpeed="max"/>
    <trip id="1013" depart="57785.27" from="gneE21" to="gneE2" fromTaz="E" toTaz="A" departLane="free" departSpeed="max"/>
    <trip id="3501" depart="57785.35" from="gneE26" to="stresemannalleeout" fromTaz="M" toTaz="H" departLane="free" departSpeed="max"/>
    <trip id="72" depart="57786.01" from="gneE3" to="mainzerout" fromTaz="A" toTaz="G" departLane="free" departSpeed="max"/>
    <trip id="1797" depart="57786.07" from="gneE39" to="gneE29" fromTaz="G" toTaz="P" departLane="free" departSpeed="max"/>